
---------- Begin Simulation Statistics ----------
sim_seconds                                  0.504372                       # Number of seconds simulated
sim_ticks                                504371836500                       # Number of ticks simulated
final_tick                               3740921556500                       # Number of ticks from beginning of simulation (restored from checkpoints and never reset)
sim_freq                                 1000000000000                       # Frequency of simulated ticks
host_inst_rate                                 107254                       # Simulator instruction rate (inst/s)
host_op_rate                                   127775                       # Simulator op (including micro ops) rate (op/s)
host_tick_rate                               17229995                       # Simulator tick rate (ticks/s)
host_mem_usage                                2657004                       # Number of bytes of host memory used
host_seconds                                 29272.90                       # Real time elapsed on the host
sim_insts                                  3139633876                       # Number of instructions simulated
sim_ops                                    3740338809                       # Number of ops (including micro ops) simulated
system.voltage_domain.voltage                       1                       # Voltage in Volts
system.clk_domain.clock                          1000                       # Clock period in ticks
system.mem_ctrls.pwrStateResidencyTicks::UNDEFINED 3740921556500                       # Cumulative time (in ticks) in various power states
system.mem_ctrls.bytes_read::l2.prefetcher    464839680                       # Number of bytes read from this memory
system.mem_ctrls.bytes_read::switch_cpus0.dtb.walker      4363072                       # Number of bytes read from this memory
system.mem_ctrls.bytes_read::switch_cpus0.itb.walker        24704                       # Number of bytes read from this memory
system.mem_ctrls.bytes_read::switch_cpus0.inst      9133888                       # Number of bytes read from this memory
system.mem_ctrls.bytes_read::switch_cpus0.data    245910464                       # Number of bytes read from this memory
system.mem_ctrls.bytes_read::switch_cpus1.dtb.walker       300288                       # Number of bytes read from this memory
system.mem_ctrls.bytes_read::switch_cpus1.itb.walker       103552                       # Number of bytes read from this memory
system.mem_ctrls.bytes_read::switch_cpus1.inst     16500928                       # Number of bytes read from this memory
system.mem_ctrls.bytes_read::switch_cpus1.data      6283776                       # Number of bytes read from this memory
system.mem_ctrls.bytes_read::switch_cpus2.dtb.walker       443840                       # Number of bytes read from this memory
system.mem_ctrls.bytes_read::switch_cpus2.itb.walker        19776                       # Number of bytes read from this memory
system.mem_ctrls.bytes_read::switch_cpus2.inst     31187456                       # Number of bytes read from this memory
system.mem_ctrls.bytes_read::switch_cpus2.data     49510528                       # Number of bytes read from this memory
system.mem_ctrls.bytes_read::switch_cpus3.dtb.walker       186560                       # Number of bytes read from this memory
system.mem_ctrls.bytes_read::switch_cpus3.itb.walker        56960                       # Number of bytes read from this memory
system.mem_ctrls.bytes_read::switch_cpus3.inst     43417216                       # Number of bytes read from this memory
system.mem_ctrls.bytes_read::switch_cpus3.data      8012480                       # Number of bytes read from this memory
system.mem_ctrls.bytes_read::total          880295168                       # Number of bytes read from this memory
system.mem_ctrls.bytes_inst_read::switch_cpus0.inst      9133888                       # Number of instructions bytes read from this memory
system.mem_ctrls.bytes_inst_read::switch_cpus1.inst     16500928                       # Number of instructions bytes read from this memory
system.mem_ctrls.bytes_inst_read::switch_cpus2.inst     31187456                       # Number of instructions bytes read from this memory
system.mem_ctrls.bytes_inst_read::switch_cpus3.inst     43417216                       # Number of instructions bytes read from this memory
system.mem_ctrls.bytes_inst_read::total     100239488                       # Number of instructions bytes read from this memory
system.mem_ctrls.bytes_written::writebacks    552979904                       # Number of bytes written to this memory
system.mem_ctrls.bytes_written::total       552979904                       # Number of bytes written to this memory
system.mem_ctrls.num_reads::l2.prefetcher      7263120                       # Number of read requests responded to by this memory
system.mem_ctrls.num_reads::switch_cpus0.dtb.walker        68173                       # Number of read requests responded to by this memory
system.mem_ctrls.num_reads::switch_cpus0.itb.walker          386                       # Number of read requests responded to by this memory
system.mem_ctrls.num_reads::switch_cpus0.inst       142717                       # Number of read requests responded to by this memory
system.mem_ctrls.num_reads::switch_cpus0.data      3842351                       # Number of read requests responded to by this memory
system.mem_ctrls.num_reads::switch_cpus1.dtb.walker         4692                       # Number of read requests responded to by this memory
system.mem_ctrls.num_reads::switch_cpus1.itb.walker         1618                       # Number of read requests responded to by this memory
system.mem_ctrls.num_reads::switch_cpus1.inst       257827                       # Number of read requests responded to by this memory
system.mem_ctrls.num_reads::switch_cpus1.data        98184                       # Number of read requests responded to by this memory
system.mem_ctrls.num_reads::switch_cpus2.dtb.walker         6935                       # Number of read requests responded to by this memory
system.mem_ctrls.num_reads::switch_cpus2.itb.walker          309                       # Number of read requests responded to by this memory
system.mem_ctrls.num_reads::switch_cpus2.inst       487304                       # Number of read requests responded to by this memory
system.mem_ctrls.num_reads::switch_cpus2.data       773602                       # Number of read requests responded to by this memory
system.mem_ctrls.num_reads::switch_cpus3.dtb.walker         2915                       # Number of read requests responded to by this memory
system.mem_ctrls.num_reads::switch_cpus3.itb.walker          890                       # Number of read requests responded to by this memory
system.mem_ctrls.num_reads::switch_cpus3.inst       678394                       # Number of read requests responded to by this memory
system.mem_ctrls.num_reads::switch_cpus3.data       125195                       # Number of read requests responded to by this memory
system.mem_ctrls.num_reads::total            13754612                       # Number of read requests responded to by this memory
system.mem_ctrls.num_writes::writebacks       8640311                       # Number of write requests responded to by this memory
system.mem_ctrls.num_writes::total            8640311                       # Number of write requests responded to by this memory
system.mem_ctrls.bw_read::l2.prefetcher     921621007                       # Total read bandwidth from this memory (bytes/s)
system.mem_ctrls.bw_read::switch_cpus0.dtb.walker      8650507                       # Total read bandwidth from this memory (bytes/s)
system.mem_ctrls.bw_read::switch_cpus0.itb.walker        48980                       # Total read bandwidth from this memory (bytes/s)
system.mem_ctrls.bw_read::switch_cpus0.inst     18109433                       # Total read bandwidth from this memory (bytes/s)
system.mem_ctrls.bw_read::switch_cpus0.data    487557881                       # Total read bandwidth from this memory (bytes/s)
system.mem_ctrls.bw_read::switch_cpus1.dtb.walker       595370                       # Total read bandwidth from this memory (bytes/s)
system.mem_ctrls.bw_read::switch_cpus1.itb.walker       205309                       # Total read bandwidth from this memory (bytes/s)
system.mem_ctrls.bw_read::switch_cpus1.inst     32715800                       # Total read bandwidth from this memory (bytes/s)
system.mem_ctrls.bw_read::switch_cpus1.data     12458618                       # Total read bandwidth from this memory (bytes/s)
system.mem_ctrls.bw_read::switch_cpus2.dtb.walker       879986                       # Total read bandwidth from this memory (bytes/s)
system.mem_ctrls.bw_read::switch_cpus2.itb.walker        39209                       # Total read bandwidth from this memory (bytes/s)
system.mem_ctrls.bw_read::switch_cpus2.inst     61834254                       # Total read bandwidth from this memory (bytes/s)
system.mem_ctrls.bw_read::switch_cpus2.data     98162753                       # Total read bandwidth from this memory (bytes/s)
system.mem_ctrls.bw_read::switch_cpus3.dtb.walker       369886                       # Total read bandwidth from this memory (bytes/s)
system.mem_ctrls.bw_read::switch_cpus3.itb.walker       112933                       # Total read bandwidth from this memory (bytes/s)
system.mem_ctrls.bw_read::switch_cpus3.inst     86081761                       # Total read bandwidth from this memory (bytes/s)
system.mem_ctrls.bw_read::switch_cpus3.data     15886058                       # Total read bandwidth from this memory (bytes/s)
system.mem_ctrls.bw_read::total            1745329743                       # Total read bandwidth from this memory (bytes/s)
system.mem_ctrls.bw_inst_read::switch_cpus0.inst     18109433                       # Instruction read bandwidth from this memory (bytes/s)
system.mem_ctrls.bw_inst_read::switch_cpus1.inst     32715800                       # Instruction read bandwidth from this memory (bytes/s)
system.mem_ctrls.bw_inst_read::switch_cpus2.inst     61834254                       # Instruction read bandwidth from this memory (bytes/s)
system.mem_ctrls.bw_inst_read::switch_cpus3.inst     86081761                       # Instruction read bandwidth from this memory (bytes/s)
system.mem_ctrls.bw_inst_read::total        198741248                       # Instruction read bandwidth from this memory (bytes/s)
system.mem_ctrls.bw_write::writebacks      1096373477                       # Write bandwidth from this memory (bytes/s)
system.mem_ctrls.bw_write::total           1096373477                       # Write bandwidth from this memory (bytes/s)
system.mem_ctrls.bw_total::writebacks      1096373477                       # Total bandwidth to/from this memory (bytes/s)
system.mem_ctrls.bw_total::l2.prefetcher    921621007                       # Total bandwidth to/from this memory (bytes/s)
system.mem_ctrls.bw_total::switch_cpus0.dtb.walker      8650507                       # Total bandwidth to/from this memory (bytes/s)
system.mem_ctrls.bw_total::switch_cpus0.itb.walker        48980                       # Total bandwidth to/from this memory (bytes/s)
system.mem_ctrls.bw_total::switch_cpus0.inst     18109433                       # Total bandwidth to/from this memory (bytes/s)
system.mem_ctrls.bw_total::switch_cpus0.data    487557881                       # Total bandwidth to/from this memory (bytes/s)
system.mem_ctrls.bw_total::switch_cpus1.dtb.walker       595370                       # Total bandwidth to/from this memory (bytes/s)
system.mem_ctrls.bw_total::switch_cpus1.itb.walker       205309                       # Total bandwidth to/from this memory (bytes/s)
system.mem_ctrls.bw_total::switch_cpus1.inst     32715800                       # Total bandwidth to/from this memory (bytes/s)
system.mem_ctrls.bw_total::switch_cpus1.data     12458618                       # Total bandwidth to/from this memory (bytes/s)
system.mem_ctrls.bw_total::switch_cpus2.dtb.walker       879986                       # Total bandwidth to/from this memory (bytes/s)
system.mem_ctrls.bw_total::switch_cpus2.itb.walker        39209                       # Total bandwidth to/from this memory (bytes/s)
system.mem_ctrls.bw_total::switch_cpus2.inst     61834254                       # Total bandwidth to/from this memory (bytes/s)
system.mem_ctrls.bw_total::switch_cpus2.data     98162753                       # Total bandwidth to/from this memory (bytes/s)
system.mem_ctrls.bw_total::switch_cpus3.dtb.walker       369886                       # Total bandwidth to/from this memory (bytes/s)
system.mem_ctrls.bw_total::switch_cpus3.itb.walker       112933                       # Total bandwidth to/from this memory (bytes/s)
system.mem_ctrls.bw_total::switch_cpus3.inst     86081761                       # Total bandwidth to/from this memory (bytes/s)
system.mem_ctrls.bw_total::switch_cpus3.data     15886058                       # Total bandwidth to/from this memory (bytes/s)
system.mem_ctrls.bw_total::total           2841703220                       # Total bandwidth to/from this memory (bytes/s)
system.mem_ctrls.readReqs                    13754611                       # Number of read requests accepted
system.mem_ctrls.writeReqs                    8640311                       # Number of write requests accepted
system.mem_ctrls.readBursts                  13754611                       # Number of DRAM read bursts, including those serviced by the write queue
system.mem_ctrls.writeBursts                  8640311                       # Number of DRAM write bursts, including those merged in the write queue
system.mem_ctrls.bytesReadDRAM              879903104                       # Total number of bytes read from DRAM
system.mem_ctrls.bytesReadWrQ                  392000                       # Total number of bytes read from write queue
system.mem_ctrls.bytesWritten               552978368                       # Total number of bytes written to DRAM
system.mem_ctrls.bytesReadSys               880295104                       # Total read bytes from the system interface side
system.mem_ctrls.bytesWrittenSys            552979904                       # Total written bytes from the system interface side
system.mem_ctrls.servicedByWrQ                   6125                       # Number of DRAM read bursts serviced by the write queue
system.mem_ctrls.mergedWrBursts                     4                       # Number of DRAM write bursts merged with an existing one
system.mem_ctrls.neitherReadNorWriteReqs            0                       # Number of requests that are neither read nor write
system.mem_ctrls.perBankRdBursts::0            907469                       # Per bank write bursts
system.mem_ctrls.perBankRdBursts::1            933592                       # Per bank write bursts
system.mem_ctrls.perBankRdBursts::2            840129                       # Per bank write bursts
system.mem_ctrls.perBankRdBursts::3            783668                       # Per bank write bursts
system.mem_ctrls.perBankRdBursts::4            793203                       # Per bank write bursts
system.mem_ctrls.perBankRdBursts::5            760304                       # Per bank write bursts
system.mem_ctrls.perBankRdBursts::6            923136                       # Per bank write bursts
system.mem_ctrls.perBankRdBursts::7            951946                       # Per bank write bursts
system.mem_ctrls.perBankRdBursts::8            955050                       # Per bank write bursts
system.mem_ctrls.perBankRdBursts::9            800693                       # Per bank write bursts
system.mem_ctrls.perBankRdBursts::10           782906                       # Per bank write bursts
system.mem_ctrls.perBankRdBursts::11           883610                       # Per bank write bursts
system.mem_ctrls.perBankRdBursts::12           760151                       # Per bank write bursts
system.mem_ctrls.perBankRdBursts::13           882347                       # Per bank write bursts
system.mem_ctrls.perBankRdBursts::14          1017334                       # Per bank write bursts
system.mem_ctrls.perBankRdBursts::15           772948                       # Per bank write bursts
system.mem_ctrls.perBankWrBursts::0            546871                       # Per bank write bursts
system.mem_ctrls.perBankWrBursts::1            528500                       # Per bank write bursts
system.mem_ctrls.perBankWrBursts::2            533412                       # Per bank write bursts
system.mem_ctrls.perBankWrBursts::3            534355                       # Per bank write bursts
system.mem_ctrls.perBankWrBursts::4            525105                       # Per bank write bursts
system.mem_ctrls.perBankWrBursts::5            532342                       # Per bank write bursts
system.mem_ctrls.perBankWrBursts::6            539017                       # Per bank write bursts
system.mem_ctrls.perBankWrBursts::7            556844                       # Per bank write bursts
system.mem_ctrls.perBankWrBursts::8            550063                       # Per bank write bursts
system.mem_ctrls.perBankWrBursts::9            534869                       # Per bank write bursts
system.mem_ctrls.perBankWrBursts::10           542386                       # Per bank write bursts
system.mem_ctrls.perBankWrBursts::11           560416                       # Per bank write bursts
system.mem_ctrls.perBankWrBursts::12           548010                       # Per bank write bursts
system.mem_ctrls.perBankWrBursts::13           533585                       # Per bank write bursts
system.mem_ctrls.perBankWrBursts::14           545974                       # Per bank write bursts
system.mem_ctrls.perBankWrBursts::15           528538                       # Per bank write bursts
system.mem_ctrls.numRdRetry                         0                       # Number of times read queue was full causing retry
system.mem_ctrls.numWrRetry                      1170                       # Number of times write queue was full causing retry
system.mem_ctrls.totGap                  504371775000                       # Total gap between requests
system.mem_ctrls.readPktSize::0                     0                       # Read request sizes (log2)
system.mem_ctrls.readPktSize::1                     0                       # Read request sizes (log2)
system.mem_ctrls.readPktSize::2                     0                       # Read request sizes (log2)
system.mem_ctrls.readPktSize::3                     0                       # Read request sizes (log2)
system.mem_ctrls.readPktSize::4                     0                       # Read request sizes (log2)
system.mem_ctrls.readPktSize::5                     0                       # Read request sizes (log2)
system.mem_ctrls.readPktSize::6              13754611                       # Read request sizes (log2)
system.mem_ctrls.writePktSize::0                    0                       # Write request sizes (log2)
system.mem_ctrls.writePktSize::1                    0                       # Write request sizes (log2)
system.mem_ctrls.writePktSize::2                    0                       # Write request sizes (log2)
system.mem_ctrls.writePktSize::3                    0                       # Write request sizes (log2)
system.mem_ctrls.writePktSize::4                    0                       # Write request sizes (log2)
system.mem_ctrls.writePktSize::5                    0                       # Write request sizes (log2)
system.mem_ctrls.writePktSize::6              8640311                       # Write request sizes (log2)
system.mem_ctrls.rdQLenPdf::0                 2835611                       # What read queue length does an incoming req see
system.mem_ctrls.rdQLenPdf::1                 3410936                       # What read queue length does an incoming req see
system.mem_ctrls.rdQLenPdf::2                 1760382                       # What read queue length does an incoming req see
system.mem_ctrls.rdQLenPdf::3                 1269241                       # What read queue length does an incoming req see
system.mem_ctrls.rdQLenPdf::4                 1022833                       # What read queue length does an incoming req see
system.mem_ctrls.rdQLenPdf::5                  817647                       # What read queue length does an incoming req see
system.mem_ctrls.rdQLenPdf::6                  671349                       # What read queue length does an incoming req see
system.mem_ctrls.rdQLenPdf::7                  610251                       # What read queue length does an incoming req see
system.mem_ctrls.rdQLenPdf::8                  531953                       # What read queue length does an incoming req see
system.mem_ctrls.rdQLenPdf::9                  397486                       # What read queue length does an incoming req see
system.mem_ctrls.rdQLenPdf::10                 239654                       # What read queue length does an incoming req see
system.mem_ctrls.rdQLenPdf::11                 107849                       # What read queue length does an incoming req see
system.mem_ctrls.rdQLenPdf::12                  43841                       # What read queue length does an incoming req see
system.mem_ctrls.rdQLenPdf::13                  23037                       # What read queue length does an incoming req see
system.mem_ctrls.rdQLenPdf::14                   5048                       # What read queue length does an incoming req see
system.mem_ctrls.rdQLenPdf::15                   1368                       # What read queue length does an incoming req see
system.mem_ctrls.rdQLenPdf::16                      0                       # What read queue length does an incoming req see
system.mem_ctrls.rdQLenPdf::17                      0                       # What read queue length does an incoming req see
system.mem_ctrls.rdQLenPdf::18                      0                       # What read queue length does an incoming req see
system.mem_ctrls.rdQLenPdf::19                      0                       # What read queue length does an incoming req see
system.mem_ctrls.rdQLenPdf::20                      0                       # What read queue length does an incoming req see
system.mem_ctrls.rdQLenPdf::21                      0                       # What read queue length does an incoming req see
system.mem_ctrls.rdQLenPdf::22                      0                       # What read queue length does an incoming req see
system.mem_ctrls.rdQLenPdf::23                      0                       # What read queue length does an incoming req see
system.mem_ctrls.rdQLenPdf::24                      0                       # What read queue length does an incoming req see
system.mem_ctrls.rdQLenPdf::25                      0                       # What read queue length does an incoming req see
system.mem_ctrls.rdQLenPdf::26                      0                       # What read queue length does an incoming req see
system.mem_ctrls.rdQLenPdf::27                      0                       # What read queue length does an incoming req see
system.mem_ctrls.rdQLenPdf::28                      0                       # What read queue length does an incoming req see
system.mem_ctrls.rdQLenPdf::29                      0                       # What read queue length does an incoming req see
system.mem_ctrls.rdQLenPdf::30                      0                       # What read queue length does an incoming req see
system.mem_ctrls.rdQLenPdf::31                      0                       # What read queue length does an incoming req see
system.mem_ctrls.wrQLenPdf::0                       1                       # What write queue length does an incoming req see
system.mem_ctrls.wrQLenPdf::1                       1                       # What write queue length does an incoming req see
system.mem_ctrls.wrQLenPdf::2                       1                       # What write queue length does an incoming req see
system.mem_ctrls.wrQLenPdf::3                       1                       # What write queue length does an incoming req see
system.mem_ctrls.wrQLenPdf::4                       1                       # What write queue length does an incoming req see
system.mem_ctrls.wrQLenPdf::5                       1                       # What write queue length does an incoming req see
system.mem_ctrls.wrQLenPdf::6                       1                       # What write queue length does an incoming req see
system.mem_ctrls.wrQLenPdf::7                       1                       # What write queue length does an incoming req see
system.mem_ctrls.wrQLenPdf::8                       1                       # What write queue length does an incoming req see
system.mem_ctrls.wrQLenPdf::9                       1                       # What write queue length does an incoming req see
system.mem_ctrls.wrQLenPdf::10                      1                       # What write queue length does an incoming req see
system.mem_ctrls.wrQLenPdf::11                      1                       # What write queue length does an incoming req see
system.mem_ctrls.wrQLenPdf::12                      1                       # What write queue length does an incoming req see
system.mem_ctrls.wrQLenPdf::13                      1                       # What write queue length does an incoming req see
system.mem_ctrls.wrQLenPdf::14                      1                       # What write queue length does an incoming req see
system.mem_ctrls.wrQLenPdf::15                  11281                       # What write queue length does an incoming req see
system.mem_ctrls.wrQLenPdf::16                  14253                       # What write queue length does an incoming req see
system.mem_ctrls.wrQLenPdf::17                  74548                       # What write queue length does an incoming req see
system.mem_ctrls.wrQLenPdf::18                 131259                       # What write queue length does an incoming req see
system.mem_ctrls.wrQLenPdf::19                 181056                       # What write queue length does an incoming req see
system.mem_ctrls.wrQLenPdf::20                 238775                       # What write queue length does an incoming req see
system.mem_ctrls.wrQLenPdf::21                 320578                       # What write queue length does an incoming req see
system.mem_ctrls.wrQLenPdf::22                 388724                       # What write queue length does an incoming req see
system.mem_ctrls.wrQLenPdf::23                 448416                       # What write queue length does an incoming req see
system.mem_ctrls.wrQLenPdf::24                 501994                       # What write queue length does an incoming req see
system.mem_ctrls.wrQLenPdf::25                 552116                       # What write queue length does an incoming req see
system.mem_ctrls.wrQLenPdf::26                 603879                       # What write queue length does an incoming req see
system.mem_ctrls.wrQLenPdf::27                 655251                       # What write queue length does an incoming req see
system.mem_ctrls.wrQLenPdf::28                 716020                       # What write queue length does an incoming req see
system.mem_ctrls.wrQLenPdf::29                 798863                       # What write queue length does an incoming req see
system.mem_ctrls.wrQLenPdf::30                 824715                       # What write queue length does an incoming req see
system.mem_ctrls.wrQLenPdf::31                 812912                       # What write queue length does an incoming req see
system.mem_ctrls.wrQLenPdf::32                 724381                       # What write queue length does an incoming req see
system.mem_ctrls.wrQLenPdf::33                 155561                       # What write queue length does an incoming req see
system.mem_ctrls.wrQLenPdf::34                  99409                       # What write queue length does an incoming req see
system.mem_ctrls.wrQLenPdf::35                  67106                       # What write queue length does an incoming req see
system.mem_ctrls.wrQLenPdf::36                  47798                       # What write queue length does an incoming req see
system.mem_ctrls.wrQLenPdf::37                  35214                       # What write queue length does an incoming req see
system.mem_ctrls.wrQLenPdf::38                  27197                       # What write queue length does an incoming req see
system.mem_ctrls.wrQLenPdf::39                  21138                       # What write queue length does an incoming req see
system.mem_ctrls.wrQLenPdf::40                  17295                       # What write queue length does an incoming req see
system.mem_ctrls.wrQLenPdf::41                  14856                       # What write queue length does an incoming req see
system.mem_ctrls.wrQLenPdf::42                  13215                       # What write queue length does an incoming req see
system.mem_ctrls.wrQLenPdf::43                  11681                       # What write queue length does an incoming req see
system.mem_ctrls.wrQLenPdf::44                  10576                       # What write queue length does an incoming req see
system.mem_ctrls.wrQLenPdf::45                   9964                       # What write queue length does an incoming req see
system.mem_ctrls.wrQLenPdf::46                   9245                       # What write queue length does an incoming req see
system.mem_ctrls.wrQLenPdf::47                   8859                       # What write queue length does an incoming req see
system.mem_ctrls.wrQLenPdf::48                   8502                       # What write queue length does an incoming req see
system.mem_ctrls.wrQLenPdf::49                   8086                       # What write queue length does an incoming req see
system.mem_ctrls.wrQLenPdf::50                   7676                       # What write queue length does an incoming req see
system.mem_ctrls.wrQLenPdf::51                   7669                       # What write queue length does an incoming req see
system.mem_ctrls.wrQLenPdf::52                   7779                       # What write queue length does an incoming req see
system.mem_ctrls.wrQLenPdf::53                   7719                       # What write queue length does an incoming req see
system.mem_ctrls.wrQLenPdf::54                   7985                       # What write queue length does an incoming req see
system.mem_ctrls.wrQLenPdf::55                   8198                       # What write queue length does an incoming req see
system.mem_ctrls.wrQLenPdf::56                   5798                       # What write queue length does an incoming req see
system.mem_ctrls.wrQLenPdf::57                   4670                       # What write queue length does an incoming req see
system.mem_ctrls.wrQLenPdf::58                   4008                       # What write queue length does an incoming req see
system.mem_ctrls.wrQLenPdf::59                   3279                       # What write queue length does an incoming req see
system.mem_ctrls.wrQLenPdf::60                   2706                       # What write queue length does an incoming req see
system.mem_ctrls.wrQLenPdf::61                   2345                       # What write queue length does an incoming req see
system.mem_ctrls.wrQLenPdf::62                   2131                       # What write queue length does an incoming req see
system.mem_ctrls.wrQLenPdf::63                   3606                       # What write queue length does an incoming req see
system.mem_ctrls.bytesPerActivate::samples     11125585                       # Bytes accessed per row activation
system.mem_ctrls.bytesPerActivate::mean    128.791493                       # Bytes accessed per row activation
system.mem_ctrls.bytesPerActivate::gmean    89.533401                       # Bytes accessed per row activation
system.mem_ctrls.bytesPerActivate::stdev   177.210909                       # Bytes accessed per row activation
system.mem_ctrls.bytesPerActivate::0-127      8312001     74.71%     74.71% # Bytes accessed per row activation
system.mem_ctrls.bytesPerActivate::128-255      1621655     14.58%     89.29% # Bytes accessed per row activation
system.mem_ctrls.bytesPerActivate::256-383       413992      3.72%     93.01% # Bytes accessed per row activation
system.mem_ctrls.bytesPerActivate::384-511       177015      1.59%     94.60% # Bytes accessed per row activation
system.mem_ctrls.bytesPerActivate::512-639       191728      1.72%     96.32% # Bytes accessed per row activation
system.mem_ctrls.bytesPerActivate::640-767        88773      0.80%     97.12% # Bytes accessed per row activation
system.mem_ctrls.bytesPerActivate::768-895        54386      0.49%     97.61% # Bytes accessed per row activation
system.mem_ctrls.bytesPerActivate::896-1023        62211      0.56%     98.17% # Bytes accessed per row activation
system.mem_ctrls.bytesPerActivate::1024-1151       203824      1.83%    100.00% # Bytes accessed per row activation
system.mem_ctrls.bytesPerActivate::total     11125585                       # Bytes accessed per row activation
system.mem_ctrls.rdPerTurnAround::samples       536138                       # Reads before turning the bus around for writes
system.mem_ctrls.rdPerTurnAround::mean      25.681957                       # Reads before turning the bus around for writes
system.mem_ctrls.rdPerTurnAround::stdev     42.035122                       # Reads before turning the bus around for writes
system.mem_ctrls.rdPerTurnAround::0-1023       536127    100.00%    100.00% # Reads before turning the bus around for writes
system.mem_ctrls.rdPerTurnAround::1024-2047           10      0.00%    100.00% # Reads before turning the bus around for writes
system.mem_ctrls.rdPerTurnAround::27648-28671            1      0.00%    100.00% # Reads before turning the bus around for writes
system.mem_ctrls.rdPerTurnAround::total        536138                       # Reads before turning the bus around for writes
system.mem_ctrls.wrPerTurnAround::samples       536138                       # Writes before turning the bus around for reads
system.mem_ctrls.wrPerTurnAround::mean      16.115789                       # Writes before turning the bus around for reads
system.mem_ctrls.wrPerTurnAround::gmean     16.098378                       # Writes before turning the bus around for reads
system.mem_ctrls.wrPerTurnAround::stdev      0.979340                       # Writes before turning the bus around for reads
system.mem_ctrls.wrPerTurnAround::16-17        520554     97.09%     97.09% # Writes before turning the bus around for reads
system.mem_ctrls.wrPerTurnAround::18-19         10511      1.96%     99.05% # Writes before turning the bus around for reads
system.mem_ctrls.wrPerTurnAround::20-21          3161      0.59%     99.64% # Writes before turning the bus around for reads
system.mem_ctrls.wrPerTurnAround::22-23           980      0.18%     99.83% # Writes before turning the bus around for reads
system.mem_ctrls.wrPerTurnAround::24-25           355      0.07%     99.89% # Writes before turning the bus around for reads
system.mem_ctrls.wrPerTurnAround::26-27           163      0.03%     99.92% # Writes before turning the bus around for reads
system.mem_ctrls.wrPerTurnAround::28-29            89      0.02%     99.94% # Writes before turning the bus around for reads
system.mem_ctrls.wrPerTurnAround::30-31            59      0.01%     99.95% # Writes before turning the bus around for reads
system.mem_ctrls.wrPerTurnAround::32-33            48      0.01%     99.96% # Writes before turning the bus around for reads
system.mem_ctrls.wrPerTurnAround::34-35            31      0.01%     99.97% # Writes before turning the bus around for reads
system.mem_ctrls.wrPerTurnAround::36-37            22      0.00%     99.97% # Writes before turning the bus around for reads
system.mem_ctrls.wrPerTurnAround::38-39            18      0.00%     99.97% # Writes before turning the bus around for reads
system.mem_ctrls.wrPerTurnAround::40-41            21      0.00%     99.98% # Writes before turning the bus around for reads
system.mem_ctrls.wrPerTurnAround::42-43            17      0.00%     99.98% # Writes before turning the bus around for reads
system.mem_ctrls.wrPerTurnAround::44-45            12      0.00%     99.98% # Writes before turning the bus around for reads
system.mem_ctrls.wrPerTurnAround::46-47            13      0.00%     99.98% # Writes before turning the bus around for reads
system.mem_ctrls.wrPerTurnAround::48-49            10      0.00%     99.99% # Writes before turning the bus around for reads
system.mem_ctrls.wrPerTurnAround::50-51            14      0.00%     99.99% # Writes before turning the bus around for reads
system.mem_ctrls.wrPerTurnAround::52-53             4      0.00%     99.99% # Writes before turning the bus around for reads
system.mem_ctrls.wrPerTurnAround::54-55             4      0.00%     99.99% # Writes before turning the bus around for reads
system.mem_ctrls.wrPerTurnAround::56-57             4      0.00%     99.99% # Writes before turning the bus around for reads
system.mem_ctrls.wrPerTurnAround::58-59             6      0.00%     99.99% # Writes before turning the bus around for reads
system.mem_ctrls.wrPerTurnAround::60-61             4      0.00%     99.99% # Writes before turning the bus around for reads
system.mem_ctrls.wrPerTurnAround::62-63             8      0.00%     99.99% # Writes before turning the bus around for reads
system.mem_ctrls.wrPerTurnAround::64-65             7      0.00%    100.00% # Writes before turning the bus around for reads
system.mem_ctrls.wrPerTurnAround::66-67             2      0.00%    100.00% # Writes before turning the bus around for reads
system.mem_ctrls.wrPerTurnAround::68-69             1      0.00%    100.00% # Writes before turning the bus around for reads
system.mem_ctrls.wrPerTurnAround::72-73             1      0.00%    100.00% # Writes before turning the bus around for reads
system.mem_ctrls.wrPerTurnAround::74-75             5      0.00%    100.00% # Writes before turning the bus around for reads
system.mem_ctrls.wrPerTurnAround::76-77             1      0.00%    100.00% # Writes before turning the bus around for reads
system.mem_ctrls.wrPerTurnAround::78-79             1      0.00%    100.00% # Writes before turning the bus around for reads
system.mem_ctrls.wrPerTurnAround::80-81             3      0.00%    100.00% # Writes before turning the bus around for reads
system.mem_ctrls.wrPerTurnAround::82-83             2      0.00%    100.00% # Writes before turning the bus around for reads
system.mem_ctrls.wrPerTurnAround::84-85             1      0.00%    100.00% # Writes before turning the bus around for reads
system.mem_ctrls.wrPerTurnAround::90-91             2      0.00%    100.00% # Writes before turning the bus around for reads
system.mem_ctrls.wrPerTurnAround::94-95             3      0.00%    100.00% # Writes before turning the bus around for reads
system.mem_ctrls.wrPerTurnAround::120-121            1      0.00%    100.00% # Writes before turning the bus around for reads
system.mem_ctrls.wrPerTurnAround::total        536138                       # Writes before turning the bus around for reads
system.mem_ctrls.totQLat                 1138673775634                       # Total ticks spent queuing
system.mem_ctrls.totMemAccLat            1396457888134                       # Total ticks spent from burst creation until serviced by the DRAM
system.mem_ctrls.totBusLat                68742430000                       # Total ticks spent in databus transfers
system.mem_ctrls.avgQLat                     82821.76                       # Average queueing delay per DRAM burst
system.mem_ctrls.avgBusLat                    5000.00                       # Average bus latency per DRAM burst
system.mem_ctrls.avgMemAccLat               101571.76                       # Average memory access latency per DRAM burst
system.mem_ctrls.avgRdBW                      1744.55                       # Average DRAM read bandwidth in MiByte/s
system.mem_ctrls.avgWrBW                      1096.37                       # Average achieved write bandwidth in MiByte/s
system.mem_ctrls.avgRdBWSys                   1745.33                       # Average system read bandwidth in MiByte/s
system.mem_ctrls.avgWrBWSys                   1096.37                       # Average system write bandwidth in MiByte/s
system.mem_ctrls.peakBW                      12800.00                       # Theoretical peak bandwidth in MiByte/s
system.mem_ctrls.busUtil                        22.19                       # Data bus utilization in percentage
system.mem_ctrls.busUtilRead                    13.63                       # Data bus utilization in percentage for reads
system.mem_ctrls.busUtilWrite                    8.57                       # Data bus utilization in percentage for writes
system.mem_ctrls.avgRdQLen                       3.79                       # Average read queue length when enqueuing
system.mem_ctrls.avgWrQLen                      27.48                       # Average write queue length when enqueuing
system.mem_ctrls.readRowHits                  8199368                       # Number of row buffer hits during reads
system.mem_ctrls.writeRowHits                 3063818                       # Number of row buffer hits during writes
system.mem_ctrls.readRowHitRate                 59.64                       # Row buffer hit rate for reads
system.mem_ctrls.writeRowHitRate                35.46                       # Row buffer hit rate for writes
system.mem_ctrls.avgGap                      22521.70                       # Average gap between requests
system.mem_ctrls.pageHitRate                    50.31                       # Row buffer hit rate, read and write combined
system.mem_ctrls_0.actEnergy              42556479840                       # Energy for activate commands per rank (pJ)
system.mem_ctrls_0.preEnergy              23220301500                       # Energy for precharge commands per rank (pJ)
system.mem_ctrls_0.readEnergy             53849468400                       # Energy for read commands per rank (pJ)
system.mem_ctrls_0.writeEnergy            27840892320                       # Energy for write commands per rank (pJ)
system.mem_ctrls_0.refreshEnergy          32988761520                       # Energy for refresh commands per rank (pJ)
system.mem_ctrls_0.actBackEnergy         339544750365                       # Energy for active background per rank (pJ)
system.mem_ctrls_0.preBackEnergy           5196291000                       # Energy for precharge background per rank (pJ)
system.mem_ctrls_0.totalEnergy           525196944945                       # Total energy per rank (pJ)
system.mem_ctrls_0.averagePower           1039.847880                       # Core power per rank (mW)
system.mem_ctrls_0.memoryStateTime::IDLE   6481776482                       # Time in different power states
system.mem_ctrls_0.memoryStateTime::REF   16842020000                       # Time in different power states
system.mem_ctrls_0.memoryStateTime::PRE_PDN            0                       # Time in different power states
system.mem_ctrls_0.memoryStateTime::ACT  481046112768                       # Time in different power states
system.mem_ctrls_0.memoryStateTime::ACT_PDN            0                       # Time in different power states
system.mem_ctrls_1.actEnergy              41607125280                       # Energy for activate commands per rank (pJ)
system.mem_ctrls_1.preEnergy              22702300500                       # Energy for precharge commands per rank (pJ)
system.mem_ctrls_1.readEnergy             53548723800                       # Energy for read commands per rank (pJ)
system.mem_ctrls_1.writeEnergy            28147940640                       # Energy for write commands per rank (pJ)
system.mem_ctrls_1.refreshEnergy          32988761520                       # Energy for refresh commands per rank (pJ)
system.mem_ctrls_1.actBackEnergy         339511337820                       # Energy for active background per rank (pJ)
system.mem_ctrls_1.preBackEnergy           5225600250                       # Energy for precharge background per rank (pJ)
system.mem_ctrls_1.totalEnergy           523731789810                       # Total energy per rank (pJ)
system.mem_ctrls_1.averagePower           1036.946990                       # Core power per rank (mW)
system.mem_ctrls_1.memoryStateTime::IDLE   6446088059                       # Time in different power states
system.mem_ctrls_1.memoryStateTime::REF   16842020000                       # Time in different power states
system.mem_ctrls_1.memoryStateTime::PRE_PDN            0                       # Time in different power states
system.mem_ctrls_1.memoryStateTime::ACT  481081808191                       # Time in different power states
system.mem_ctrls_1.memoryStateTime::ACT_PDN            0                       # Time in different power states
system.realview.nvmem.pwrStateResidencyTicks::UNDEFINED 3740921556500                       # Cumulative time (in ticks) in various power states
system.realview.vram.pwrStateResidencyTicks::UNDEFINED 3740921556500                       # Cumulative time (in ticks) in various power states
system.pwrStateResidencyTicks::UNDEFINED 3740921556500                       # Cumulative time (in ticks) in various power states
system.bridge.pwrStateResidencyTicks::UNDEFINED 3740921556500                       # Cumulative time (in ticks) in various power states
system.cf0.dma_read_full_pages                      0                       # Number of full page size DMA reads (not PRD).
system.cf0.dma_read_bytes                           0                       # Number of bytes transfered via DMA reads (not PRD).
system.cf0.dma_read_txs                             0                       # Number of DMA read transactions (not PRD).
system.cf0.dma_write_full_pages                  2334                       # Number of full page size DMA writes.
system.cf0.dma_write_bytes                    9636864                       # Number of bytes transfered via DMA writes.
system.cf0.dma_write_txs                         2403                       # Number of DMA write transactions.
system.cpu_voltage_domain.voltage                   1                       # Voltage in Volts
system.cpu_clk_domain.clock                       500                       # Clock period in ticks
system.cpu0.dstage2_mmu.stage2_tlb.walker.pwrStateResidencyTicks::UNDEFINED 3740921556500                       # Cumulative time (in ticks) in various power states
system.cpu0.dstage2_mmu.stage2_tlb.walker.walks            0                       # Table walker walks requested
system.cpu0.dstage2_mmu.stage2_tlb.walker.walkRequestOrigin_Requested::Data            0                       # Table walker requests started/completed, data/inst
system.cpu0.dstage2_mmu.stage2_tlb.walker.walkRequestOrigin_Requested::Inst            0                       # Table walker requests started/completed, data/inst
system.cpu0.dstage2_mmu.stage2_tlb.walker.walkRequestOrigin_Requested::total            0                       # Table walker requests started/completed, data/inst
system.cpu0.dstage2_mmu.stage2_tlb.walker.walkRequestOrigin_Completed::Data            0                       # Table walker requests started/completed, data/inst
system.cpu0.dstage2_mmu.stage2_tlb.walker.walkRequestOrigin_Completed::Inst            0                       # Table walker requests started/completed, data/inst
system.cpu0.dstage2_mmu.stage2_tlb.walker.walkRequestOrigin_Completed::total            0                       # Table walker requests started/completed, data/inst
system.cpu0.dstage2_mmu.stage2_tlb.walker.walkRequestOrigin::total            0                       # Table walker requests started/completed, data/inst
system.cpu0.dstage2_mmu.stage2_tlb.inst_hits            0                       # ITB inst hits
system.cpu0.dstage2_mmu.stage2_tlb.inst_misses            0                       # ITB inst misses
system.cpu0.dstage2_mmu.stage2_tlb.read_hits            0                       # DTB read hits
system.cpu0.dstage2_mmu.stage2_tlb.read_misses            0                       # DTB read misses
system.cpu0.dstage2_mmu.stage2_tlb.write_hits            0                       # DTB write hits
system.cpu0.dstage2_mmu.stage2_tlb.write_misses            0                       # DTB write misses
system.cpu0.dstage2_mmu.stage2_tlb.flush_tlb            0                       # Number of times complete TLB was flushed
system.cpu0.dstage2_mmu.stage2_tlb.flush_tlb_mva            0                       # Number of times TLB was flushed by MVA
system.cpu0.dstage2_mmu.stage2_tlb.flush_tlb_mva_asid            0                       # Number of times TLB was flushed by MVA & ASID
system.cpu0.dstage2_mmu.stage2_tlb.flush_tlb_asid            0                       # Number of times TLB was flushed by ASID
system.cpu0.dstage2_mmu.stage2_tlb.flush_entries            0                       # Number of entries that have been flushed from TLB
system.cpu0.dstage2_mmu.stage2_tlb.align_faults            0                       # Number of TLB faults due to alignment restrictions
system.cpu0.dstage2_mmu.stage2_tlb.prefetch_faults            0                       # Number of TLB faults due to prefetch
system.cpu0.dstage2_mmu.stage2_tlb.domain_faults            0                       # Number of TLB faults due to domain restrictions
system.cpu0.dstage2_mmu.stage2_tlb.perms_faults            0                       # Number of TLB faults due to permissions restrictions
system.cpu0.dstage2_mmu.stage2_tlb.read_accesses            0                       # DTB read accesses
system.cpu0.dstage2_mmu.stage2_tlb.write_accesses            0                       # DTB write accesses
system.cpu0.dstage2_mmu.stage2_tlb.inst_accesses            0                       # ITB inst accesses
system.cpu0.dstage2_mmu.stage2_tlb.hits             0                       # DTB hits
system.cpu0.dstage2_mmu.stage2_tlb.misses            0                       # DTB misses
system.cpu0.dstage2_mmu.stage2_tlb.accesses            0                       # DTB accesses
system.cpu0.dtb.walker.pwrStateResidencyTicks::UNDEFINED 3740921556500                       # Cumulative time (in ticks) in various power states
system.cpu0.dtb.walker.walks                        0                       # Table walker walks requested
system.cpu0.dtb.walker.walkRequestOrigin_Requested::Data            0                       # Table walker requests started/completed, data/inst
system.cpu0.dtb.walker.walkRequestOrigin_Requested::Inst            0                       # Table walker requests started/completed, data/inst
system.cpu0.dtb.walker.walkRequestOrigin_Requested::total            0                       # Table walker requests started/completed, data/inst
system.cpu0.dtb.walker.walkRequestOrigin_Completed::Data            0                       # Table walker requests started/completed, data/inst
system.cpu0.dtb.walker.walkRequestOrigin_Completed::Inst            0                       # Table walker requests started/completed, data/inst
system.cpu0.dtb.walker.walkRequestOrigin_Completed::total            0                       # Table walker requests started/completed, data/inst
system.cpu0.dtb.walker.walkRequestOrigin::total            0                       # Table walker requests started/completed, data/inst
system.cpu0.dtb.inst_hits                           0                       # ITB inst hits
system.cpu0.dtb.inst_misses                         0                       # ITB inst misses
system.cpu0.dtb.read_hits                           0                       # DTB read hits
system.cpu0.dtb.read_misses                         0                       # DTB read misses
system.cpu0.dtb.write_hits                          0                       # DTB write hits
system.cpu0.dtb.write_misses                        0                       # DTB write misses
system.cpu0.dtb.flush_tlb                           0                       # Number of times complete TLB was flushed
system.cpu0.dtb.flush_tlb_mva                       0                       # Number of times TLB was flushed by MVA
system.cpu0.dtb.flush_tlb_mva_asid                  0                       # Number of times TLB was flushed by MVA & ASID
system.cpu0.dtb.flush_tlb_asid                      0                       # Number of times TLB was flushed by ASID
system.cpu0.dtb.flush_entries                       0                       # Number of entries that have been flushed from TLB
system.cpu0.dtb.align_faults                        0                       # Number of TLB faults due to alignment restrictions
system.cpu0.dtb.prefetch_faults                     0                       # Number of TLB faults due to prefetch
system.cpu0.dtb.domain_faults                       0                       # Number of TLB faults due to domain restrictions
system.cpu0.dtb.perms_faults                        0                       # Number of TLB faults due to permissions restrictions
system.cpu0.dtb.read_accesses                       0                       # DTB read accesses
system.cpu0.dtb.write_accesses                      0                       # DTB write accesses
system.cpu0.dtb.inst_accesses                       0                       # ITB inst accesses
system.cpu0.dtb.hits                                0                       # DTB hits
system.cpu0.dtb.misses                              0                       # DTB misses
system.cpu0.dtb.accesses                            0                       # DTB accesses
system.cpu0.istage2_mmu.stage2_tlb.walker.pwrStateResidencyTicks::UNDEFINED 3740921556500                       # Cumulative time (in ticks) in various power states
system.cpu0.istage2_mmu.stage2_tlb.walker.walks            0                       # Table walker walks requested
system.cpu0.istage2_mmu.stage2_tlb.walker.walkRequestOrigin_Requested::Data            0                       # Table walker requests started/completed, data/inst
system.cpu0.istage2_mmu.stage2_tlb.walker.walkRequestOrigin_Requested::Inst            0                       # Table walker requests started/completed, data/inst
system.cpu0.istage2_mmu.stage2_tlb.walker.walkRequestOrigin_Requested::total            0                       # Table walker requests started/completed, data/inst
system.cpu0.istage2_mmu.stage2_tlb.walker.walkRequestOrigin_Completed::Data            0                       # Table walker requests started/completed, data/inst
system.cpu0.istage2_mmu.stage2_tlb.walker.walkRequestOrigin_Completed::Inst            0                       # Table walker requests started/completed, data/inst
system.cpu0.istage2_mmu.stage2_tlb.walker.walkRequestOrigin_Completed::total            0                       # Table walker requests started/completed, data/inst
system.cpu0.istage2_mmu.stage2_tlb.walker.walkRequestOrigin::total            0                       # Table walker requests started/completed, data/inst
system.cpu0.istage2_mmu.stage2_tlb.inst_hits            0                       # ITB inst hits
system.cpu0.istage2_mmu.stage2_tlb.inst_misses            0                       # ITB inst misses
system.cpu0.istage2_mmu.stage2_tlb.read_hits            0                       # DTB read hits
system.cpu0.istage2_mmu.stage2_tlb.read_misses            0                       # DTB read misses
system.cpu0.istage2_mmu.stage2_tlb.write_hits            0                       # DTB write hits
system.cpu0.istage2_mmu.stage2_tlb.write_misses            0                       # DTB write misses
system.cpu0.istage2_mmu.stage2_tlb.flush_tlb            0                       # Number of times complete TLB was flushed
system.cpu0.istage2_mmu.stage2_tlb.flush_tlb_mva            0                       # Number of times TLB was flushed by MVA
system.cpu0.istage2_mmu.stage2_tlb.flush_tlb_mva_asid            0                       # Number of times TLB was flushed by MVA & ASID
system.cpu0.istage2_mmu.stage2_tlb.flush_tlb_asid            0                       # Number of times TLB was flushed by ASID
system.cpu0.istage2_mmu.stage2_tlb.flush_entries            0                       # Number of entries that have been flushed from TLB
system.cpu0.istage2_mmu.stage2_tlb.align_faults            0                       # Number of TLB faults due to alignment restrictions
system.cpu0.istage2_mmu.stage2_tlb.prefetch_faults            0                       # Number of TLB faults due to prefetch
system.cpu0.istage2_mmu.stage2_tlb.domain_faults            0                       # Number of TLB faults due to domain restrictions
system.cpu0.istage2_mmu.stage2_tlb.perms_faults            0                       # Number of TLB faults due to permissions restrictions
system.cpu0.istage2_mmu.stage2_tlb.read_accesses            0                       # DTB read accesses
system.cpu0.istage2_mmu.stage2_tlb.write_accesses            0                       # DTB write accesses
system.cpu0.istage2_mmu.stage2_tlb.inst_accesses            0                       # ITB inst accesses
system.cpu0.istage2_mmu.stage2_tlb.hits             0                       # DTB hits
system.cpu0.istage2_mmu.stage2_tlb.misses            0                       # DTB misses
system.cpu0.istage2_mmu.stage2_tlb.accesses            0                       # DTB accesses
system.cpu0.itb.walker.pwrStateResidencyTicks::UNDEFINED 3740921556500                       # Cumulative time (in ticks) in various power states
system.cpu0.itb.walker.walks                        0                       # Table walker walks requested
system.cpu0.itb.walker.walkRequestOrigin_Requested::Data            0                       # Table walker requests started/completed, data/inst
system.cpu0.itb.walker.walkRequestOrigin_Requested::Inst            0                       # Table walker requests started/completed, data/inst
system.cpu0.itb.walker.walkRequestOrigin_Requested::total            0                       # Table walker requests started/completed, data/inst
system.cpu0.itb.walker.walkRequestOrigin_Completed::Data            0                       # Table walker requests started/completed, data/inst
system.cpu0.itb.walker.walkRequestOrigin_Completed::Inst            0                       # Table walker requests started/completed, data/inst
system.cpu0.itb.walker.walkRequestOrigin_Completed::total            0                       # Table walker requests started/completed, data/inst
system.cpu0.itb.walker.walkRequestOrigin::total            0                       # Table walker requests started/completed, data/inst
system.cpu0.itb.inst_hits                           0                       # ITB inst hits
system.cpu0.itb.inst_misses                         0                       # ITB inst misses
system.cpu0.itb.read_hits                           0                       # DTB read hits
system.cpu0.itb.read_misses                         0                       # DTB read misses
system.cpu0.itb.write_hits                          0                       # DTB write hits
system.cpu0.itb.write_misses                        0                       # DTB write misses
system.cpu0.itb.flush_tlb                           0                       # Number of times complete TLB was flushed
system.cpu0.itb.flush_tlb_mva                       0                       # Number of times TLB was flushed by MVA
system.cpu0.itb.flush_tlb_mva_asid                  0                       # Number of times TLB was flushed by MVA & ASID
system.cpu0.itb.flush_tlb_asid                      0                       # Number of times TLB was flushed by ASID
system.cpu0.itb.flush_entries                       0                       # Number of entries that have been flushed from TLB
system.cpu0.itb.align_faults                        0                       # Number of TLB faults due to alignment restrictions
system.cpu0.itb.prefetch_faults                     0                       # Number of TLB faults due to prefetch
system.cpu0.itb.domain_faults                       0                       # Number of TLB faults due to domain restrictions
system.cpu0.itb.perms_faults                        0                       # Number of TLB faults due to permissions restrictions
system.cpu0.itb.read_accesses                       0                       # DTB read accesses
system.cpu0.itb.write_accesses                      0                       # DTB write accesses
system.cpu0.itb.inst_accesses                       0                       # ITB inst accesses
system.cpu0.itb.hits                                0                       # DTB hits
system.cpu0.itb.misses                              0                       # DTB misses
system.cpu0.itb.accesses                            0                       # DTB accesses
system.cpu0.pwrStateResidencyTicks::ON   505074361000                       # Cumulative time (in ticks) in various power states
system.cpu0.numCycles                               0                       # number of cpu cycles simulated
system.cpu0.numWorkItemsStarted                     0                       # number of work items this cpu started
system.cpu0.numWorkItemsCompleted                   0                       # number of work items this cpu completed
system.cpu0.kern.inst.arm                           0                       # number of arm instructions executed
system.cpu0.kern.inst.quiesce                     294                       # number of quiesce instructions executed
system.cpu0.committedInsts                          0                       # Number of instructions committed
system.cpu0.committedOps                            0                       # Number of ops (including micro ops) committed
system.cpu0.num_int_alu_accesses                    0                       # Number of integer alu accesses
system.cpu0.num_fp_alu_accesses                     0                       # Number of float alu accesses
system.cpu0.num_func_calls                          0                       # number of times a function call or return occured
system.cpu0.num_conditional_control_insts            0                       # number of instructions that are conditional controls
system.cpu0.num_int_insts                           0                       # number of integer instructions
system.cpu0.num_fp_insts                            0                       # number of float instructions
system.cpu0.num_int_register_reads                  0                       # number of times the integer registers were read
system.cpu0.num_int_register_writes                 0                       # number of times the integer registers were written
system.cpu0.num_fp_register_reads                   0                       # number of times the floating registers were read
system.cpu0.num_fp_register_writes                  0                       # number of times the floating registers were written
system.cpu0.num_mem_refs                            0                       # number of memory refs
system.cpu0.num_load_insts                          0                       # Number of load instructions
system.cpu0.num_store_insts                         0                       # Number of store instructions
system.cpu0.num_idle_cycles                         0                       # Number of idle cycles
system.cpu0.num_busy_cycles                         0                       # Number of busy cycles
system.cpu0.not_idle_fraction                       0                       # Percentage of non-idle cycles
system.cpu0.idle_fraction                           1                       # Percentage of idle cycles
system.cpu0.op_class::No_OpClass                    0                       # Class of executed instruction
system.cpu0.op_class::IntAlu                        0                       # Class of executed instruction
system.cpu0.op_class::IntMult                       0                       # Class of executed instruction
system.cpu0.op_class::IntDiv                        0                       # Class of executed instruction
system.cpu0.op_class::FloatAdd                      0                       # Class of executed instruction
system.cpu0.op_class::FloatCmp                      0                       # Class of executed instruction
system.cpu0.op_class::FloatCvt                      0                       # Class of executed instruction
system.cpu0.op_class::FloatMult                     0                       # Class of executed instruction
system.cpu0.op_class::FloatDiv                      0                       # Class of executed instruction
system.cpu0.op_class::FloatSqrt                     0                       # Class of executed instruction
system.cpu0.op_class::SimdAdd                       0                       # Class of executed instruction
system.cpu0.op_class::SimdAddAcc                    0                       # Class of executed instruction
system.cpu0.op_class::SimdAlu                       0                       # Class of executed instruction
system.cpu0.op_class::SimdCmp                       0                       # Class of executed instruction
system.cpu0.op_class::SimdCvt                       0                       # Class of executed instruction
system.cpu0.op_class::SimdMisc                      0                       # Class of executed instruction
system.cpu0.op_class::SimdMult                      0                       # Class of executed instruction
system.cpu0.op_class::SimdMultAcc                   0                       # Class of executed instruction
system.cpu0.op_class::SimdShift                     0                       # Class of executed instruction
system.cpu0.op_class::SimdShiftAcc                  0                       # Class of executed instruction
system.cpu0.op_class::SimdSqrt                      0                       # Class of executed instruction
system.cpu0.op_class::SimdFloatAdd                  0                       # Class of executed instruction
system.cpu0.op_class::SimdFloatAlu                  0                       # Class of executed instruction
system.cpu0.op_class::SimdFloatCmp                  0                       # Class of executed instruction
system.cpu0.op_class::SimdFloatCvt                  0                       # Class of executed instruction
system.cpu0.op_class::SimdFloatDiv                  0                       # Class of executed instruction
system.cpu0.op_class::SimdFloatMisc                 0                       # Class of executed instruction
system.cpu0.op_class::SimdFloatMult                 0                       # Class of executed instruction
system.cpu0.op_class::SimdFloatMultAcc              0                       # Class of executed instruction
system.cpu0.op_class::SimdFloatSqrt                 0                       # Class of executed instruction
system.cpu0.op_class::MemRead                       0                       # Class of executed instruction
system.cpu0.op_class::MemWrite                      0                       # Class of executed instruction
system.cpu0.op_class::IprAccess                     0                       # Class of executed instruction
system.cpu0.op_class::InstPrefetch                  0                       # Class of executed instruction
system.cpu0.op_class::total                         0                       # Class of executed instruction
system.cpu0.dcache.tags.pwrStateResidencyTicks::UNDEFINED 3740921556500                       # Cumulative time (in ticks) in various power states
system.cpu0.dcache.tags.replacements         12026714                       # number of replacements
system.cpu0.dcache.tags.tagsinuse         1021.661654                       # Cycle average of tags in use
system.cpu0.dcache.tags.total_refs          143199195                       # Total number of references to valid blocks.
system.cpu0.dcache.tags.sampled_refs         12027700                       # Sample count of references to valid blocks.
system.cpu0.dcache.tags.avg_refs            11.905784                       # Average number of references to valid blocks.
system.cpu0.dcache.tags.warmup_cycle     3248452497500                       # Cycle when the warmup percentage was hit.
system.cpu0.dcache.tags.occ_blocks::switch_cpus0.data  1021.661654                       # Average occupied blocks per requestor
system.cpu0.dcache.tags.occ_percent::switch_cpus0.data     0.997716                       # Average percentage of cache occupancy
system.cpu0.dcache.tags.occ_percent::total     0.997716                       # Average percentage of cache occupancy
system.cpu0.dcache.tags.occ_task_id_blocks::1024          986                       # Occupied blocks per task id
system.cpu0.dcache.tags.age_task_id_blocks_1024::0          105                       # Occupied blocks per task id
system.cpu0.dcache.tags.age_task_id_blocks_1024::1          540                       # Occupied blocks per task id
system.cpu0.dcache.tags.age_task_id_blocks_1024::2          341                       # Occupied blocks per task id
system.cpu0.dcache.tags.occ_task_id_percent::1024     0.962891                       # Percentage of cache occupancy per task id
system.cpu0.dcache.tags.tag_accesses        352232738                       # Number of tag accesses
system.cpu0.dcache.tags.data_accesses       352232738                       # Number of data accesses
system.cpu0.dcache.pwrStateResidencyTicks::UNDEFINED 3740921556500                       # Cumulative time (in ticks) in various power states
system.cpu0.dcache.ReadReq_hits::switch_cpus0.data     96616747                       # number of ReadReq hits
system.cpu0.dcache.ReadReq_hits::total       96616747                       # number of ReadReq hits
system.cpu0.dcache.WriteReq_hits::switch_cpus0.data     46044145                       # number of WriteReq hits
system.cpu0.dcache.WriteReq_hits::total      46044145                       # number of WriteReq hits
system.cpu0.dcache.SoftPFReq_hits::switch_cpus0.data        37335                       # number of SoftPFReq hits
system.cpu0.dcache.SoftPFReq_hits::total        37335                       # number of SoftPFReq hits
system.cpu0.dcache.LoadLockedReq_hits::switch_cpus0.data       229992                       # number of LoadLockedReq hits
system.cpu0.dcache.LoadLockedReq_hits::total       229992                       # number of LoadLockedReq hits
system.cpu0.dcache.StoreCondReq_hits::switch_cpus0.data       228487                       # number of StoreCondReq hits
system.cpu0.dcache.StoreCondReq_hits::total       228487                       # number of StoreCondReq hits
system.cpu0.dcache.demand_hits::switch_cpus0.data    142660892                       # number of demand (read+write) hits
system.cpu0.dcache.demand_hits::total       142660892                       # number of demand (read+write) hits
system.cpu0.dcache.overall_hits::switch_cpus0.data    142698227                       # number of overall hits
system.cpu0.dcache.overall_hits::total      142698227                       # number of overall hits
system.cpu0.dcache.ReadReq_misses::switch_cpus0.data     25638188                       # number of ReadReq misses
system.cpu0.dcache.ReadReq_misses::total     25638188                       # number of ReadReq misses
system.cpu0.dcache.WriteReq_misses::switch_cpus0.data      1243316                       # number of WriteReq misses
system.cpu0.dcache.WriteReq_misses::total      1243316                       # number of WriteReq misses
system.cpu0.dcache.SoftPFReq_misses::switch_cpus0.data        50769                       # number of SoftPFReq misses
system.cpu0.dcache.SoftPFReq_misses::total        50769                       # number of SoftPFReq misses
system.cpu0.dcache.LoadLockedReq_misses::switch_cpus0.data         4377                       # number of LoadLockedReq misses
system.cpu0.dcache.LoadLockedReq_misses::total         4377                       # number of LoadLockedReq misses
system.cpu0.dcache.StoreCondReq_misses::switch_cpus0.data         4489                       # number of StoreCondReq misses
system.cpu0.dcache.StoreCondReq_misses::total         4489                       # number of StoreCondReq misses
system.cpu0.dcache.demand_misses::switch_cpus0.data     26881504                       # number of demand (read+write) misses
system.cpu0.dcache.demand_misses::total      26881504                       # number of demand (read+write) misses
system.cpu0.dcache.overall_misses::switch_cpus0.data     26932273                       # number of overall misses
system.cpu0.dcache.overall_misses::total     26932273                       # number of overall misses
system.cpu0.dcache.ReadReq_miss_latency::switch_cpus0.data 1317853917000                       # number of ReadReq miss cycles
system.cpu0.dcache.ReadReq_miss_latency::total 1317853917000                       # number of ReadReq miss cycles
system.cpu0.dcache.WriteReq_miss_latency::switch_cpus0.data  29483608070                       # number of WriteReq miss cycles
system.cpu0.dcache.WriteReq_miss_latency::total  29483608070                       # number of WriteReq miss cycles
system.cpu0.dcache.LoadLockedReq_miss_latency::switch_cpus0.data    159381000                       # number of LoadLockedReq miss cycles
system.cpu0.dcache.LoadLockedReq_miss_latency::total    159381000                       # number of LoadLockedReq miss cycles
system.cpu0.dcache.StoreCondReq_miss_latency::switch_cpus0.data     27950500                       # number of StoreCondReq miss cycles
system.cpu0.dcache.StoreCondReq_miss_latency::total     27950500                       # number of StoreCondReq miss cycles
system.cpu0.dcache.StoreCondFailReq_miss_latency::switch_cpus0.data        26500                       # number of StoreCondFailReq miss cycles
system.cpu0.dcache.StoreCondFailReq_miss_latency::total        26500                       # number of StoreCondFailReq miss cycles
system.cpu0.dcache.demand_miss_latency::switch_cpus0.data 1347337525070                       # number of demand (read+write) miss cycles
system.cpu0.dcache.demand_miss_latency::total 1347337525070                       # number of demand (read+write) miss cycles
system.cpu0.dcache.overall_miss_latency::switch_cpus0.data 1347337525070                       # number of overall miss cycles
system.cpu0.dcache.overall_miss_latency::total 1347337525070                       # number of overall miss cycles
system.cpu0.dcache.ReadReq_accesses::switch_cpus0.data    122254935                       # number of ReadReq accesses(hits+misses)
system.cpu0.dcache.ReadReq_accesses::total    122254935                       # number of ReadReq accesses(hits+misses)
system.cpu0.dcache.WriteReq_accesses::switch_cpus0.data     47287461                       # number of WriteReq accesses(hits+misses)
system.cpu0.dcache.WriteReq_accesses::total     47287461                       # number of WriteReq accesses(hits+misses)
system.cpu0.dcache.SoftPFReq_accesses::switch_cpus0.data        88104                       # number of SoftPFReq accesses(hits+misses)
system.cpu0.dcache.SoftPFReq_accesses::total        88104                       # number of SoftPFReq accesses(hits+misses)
system.cpu0.dcache.LoadLockedReq_accesses::switch_cpus0.data       234369                       # number of LoadLockedReq accesses(hits+misses)
system.cpu0.dcache.LoadLockedReq_accesses::total       234369                       # number of LoadLockedReq accesses(hits+misses)
system.cpu0.dcache.StoreCondReq_accesses::switch_cpus0.data       232976                       # number of StoreCondReq accesses(hits+misses)
system.cpu0.dcache.StoreCondReq_accesses::total       232976                       # number of StoreCondReq accesses(hits+misses)
system.cpu0.dcache.demand_accesses::switch_cpus0.data    169542396                       # number of demand (read+write) accesses
system.cpu0.dcache.demand_accesses::total    169542396                       # number of demand (read+write) accesses
system.cpu0.dcache.overall_accesses::switch_cpus0.data    169630500                       # number of overall (read+write) accesses
system.cpu0.dcache.overall_accesses::total    169630500                       # number of overall (read+write) accesses
system.cpu0.dcache.ReadReq_miss_rate::switch_cpus0.data     0.209711                       # miss rate for ReadReq accesses
system.cpu0.dcache.ReadReq_miss_rate::total     0.209711                       # miss rate for ReadReq accesses
system.cpu0.dcache.WriteReq_miss_rate::switch_cpus0.data     0.026293                       # miss rate for WriteReq accesses
system.cpu0.dcache.WriteReq_miss_rate::total     0.026293                       # miss rate for WriteReq accesses
system.cpu0.dcache.SoftPFReq_miss_rate::switch_cpus0.data     0.576239                       # miss rate for SoftPFReq accesses
system.cpu0.dcache.SoftPFReq_miss_rate::total     0.576239                       # miss rate for SoftPFReq accesses
system.cpu0.dcache.LoadLockedReq_miss_rate::switch_cpus0.data     0.018676                       # miss rate for LoadLockedReq accesses
system.cpu0.dcache.LoadLockedReq_miss_rate::total     0.018676                       # miss rate for LoadLockedReq accesses
system.cpu0.dcache.StoreCondReq_miss_rate::switch_cpus0.data     0.019268                       # miss rate for StoreCondReq accesses
system.cpu0.dcache.StoreCondReq_miss_rate::total     0.019268                       # miss rate for StoreCondReq accesses
system.cpu0.dcache.demand_miss_rate::switch_cpus0.data     0.158553                       # miss rate for demand accesses
system.cpu0.dcache.demand_miss_rate::total     0.158553                       # miss rate for demand accesses
system.cpu0.dcache.overall_miss_rate::switch_cpus0.data     0.158770                       # miss rate for overall accesses
system.cpu0.dcache.overall_miss_rate::total     0.158770                       # miss rate for overall accesses
system.cpu0.dcache.ReadReq_avg_miss_latency::switch_cpus0.data 51401.991319                       # average ReadReq miss latency
system.cpu0.dcache.ReadReq_avg_miss_latency::total 51401.991319                       # average ReadReq miss latency
system.cpu0.dcache.WriteReq_avg_miss_latency::switch_cpus0.data 23713.688290                       # average WriteReq miss latency
system.cpu0.dcache.WriteReq_avg_miss_latency::total 23713.688290                       # average WriteReq miss latency
system.cpu0.dcache.LoadLockedReq_avg_miss_latency::switch_cpus0.data 36413.296779                       # average LoadLockedReq miss latency
system.cpu0.dcache.LoadLockedReq_avg_miss_latency::total 36413.296779                       # average LoadLockedReq miss latency
system.cpu0.dcache.StoreCondReq_avg_miss_latency::switch_cpus0.data  6226.442415                       # average StoreCondReq miss latency
system.cpu0.dcache.StoreCondReq_avg_miss_latency::total  6226.442415                       # average StoreCondReq miss latency
[...]
system.switch_cpus3.commit.op_class_0::SimdFloatAlu            0      0.00%     64.73% # Class of committed instruction
system.switch_cpus3.commit.op_class_0::SimdFloatCmp            5      0.00%     64.73% # Class of committed instruction
system.switch_cpus3.commit.op_class_0::SimdFloatCvt            4      0.00%     64.73% # Class of committed instruction
system.switch_cpus3.commit.op_class_0::SimdFloatDiv            0      0.00%     64.73% # Class of committed instruction
system.switch_cpus3.commit.op_class_0::SimdFloatMisc         1000      0.00%     64.73% # Class of committed instruction
system.switch_cpus3.commit.op_class_0::SimdFloatMult            2      0.00%     64.73% # Class of committed instruction
system.switch_cpus3.commit.op_class_0::SimdFloatMultAcc            0      0.00%     64.73% # Class of committed instruction
system.switch_cpus3.commit.op_class_0::SimdFloatSqrt            0      0.00%     64.73% # Class of committed instruction
system.switch_cpus3.commit.op_class_0::MemRead    223917695     17.77%     82.51% # Class of committed instruction
system.switch_cpus3.commit.op_class_0::MemWrite    220429405     17.49%    100.00% # Class of committed instruction
system.switch_cpus3.commit.op_class_0::IprAccess            0      0.00%    100.00% # Class of committed instruction
system.switch_cpus3.commit.op_class_0::InstPrefetch            0      0.00%    100.00% # Class of committed instruction
system.switch_cpus3.commit.op_class_0::total   1260021727                       # Class of committed instruction
system.switch_cpus3.commit.bw_lim_events     30161292                       # number cycles where commit BW limit reached
system.switch_cpus3.rob.rob_reads          2204909086                       # The number of ROB reads
system.switch_cpus3.rob.rob_writes         2727937620                       # The number of ROB writes
system.switch_cpus3.timesIdled                 832593                       # Number of times that the entire CPU went into an idle state and unscheduled itself
system.switch_cpus3.idleCycles              102029203                       # Total number of cycles that the CPU has spent unscheduled due to idling
system.switch_cpus3.quiesceCycles             8744155                       # Total number of cycles that CPU has spent quiesced or waiting for an interrupt
system.switch_cpus3.committedInsts         1012237490                       # Number of Instructions Simulated
system.switch_cpus3.committedOps           1259981745                       # Number of Ops (including micro ops) Simulated
system.switch_cpus3.cpi                      0.987911                       # CPI: Cycles Per Instruction
system.switch_cpus3.cpi_total                0.987911                       # CPI: Total CPI of All Threads
system.switch_cpus3.ipc                      1.012237                       # IPC: Instructions Per Cycle
system.switch_cpus3.ipc_total                1.012237                       # IPC: Total IPC of All Threads
system.switch_cpus3.int_regfile_reads      1471936821                       # number of integer regfile reads
system.switch_cpus3.int_regfile_writes      757759571                       # number of integer regfile writes
system.switch_cpus3.fp_regfile_reads             4988                       # number of floating regfile reads
system.switch_cpus3.fp_regfile_writes            3183                       # number of floating regfile writes
system.switch_cpus3.cc_regfile_reads       4598667980                       # number of cc regfile reads
system.switch_cpus3.cc_regfile_writes       726237170                       # number of cc regfile writes
system.switch_cpus3.misc_regfile_reads     2284759961                       # number of misc regfile reads
system.switch_cpus3.misc_regfile_writes       4277014                       # number of misc regfile writes
system.tol2bus.snoop_filter.tot_requests     66660554                       # Total number of requests made to the snoop filter.
system.tol2bus.snoop_filter.hit_single_requests     33058878                       # Number of requests hitting in the snoop filter with a single holder of the requested data.
system.tol2bus.snoop_filter.hit_multi_requests      1954503                       # Number of requests hitting in the snoop filter with multiple (>1) holders of the requested data.
system.tol2bus.snoop_filter.tot_snoops         106836                       # Total number of snoops made to the snoop filter.
system.tol2bus.snoop_filter.hit_single_snoops       104720                       # Number of snoops hitting in the snoop filter with a single holder of the requested data.
system.tol2bus.snoop_filter.hit_multi_snoops         2116                       # Number of snoops hitting in the snoop filter with multiple (>1) holders of the requested data.
system.tol2bus.pwrStateResidencyTicks::UNDEFINED 3740921556500                       # Cumulative time (in ticks) in various power states
system.tol2bus.trans_dist::ReadReq               4435                       # Transaction distribution
system.tol2bus.trans_dist::ReadResp          25947816                       # Transaction distribution
system.tol2bus.trans_dist::WriteReq              5355                       # Transaction distribution
system.tol2bus.trans_dist::WriteResp             5355                       # Transaction distribution
system.tol2bus.trans_dist::WritebackDirty     20310837                       # Transaction distribution
system.tol2bus.trans_dist::WritebackClean     21345268                       # Transaction distribution
system.tol2bus.trans_dist::CleanEvict         3750032                       # Transaction distribution
system.tol2bus.trans_dist::HardPFReq         10070112                       # Transaction distribution
system.tol2bus.trans_dist::UpgradeReq          133124                       # Transaction distribution
system.tol2bus.trans_dist::SCUpgradeReq         17354                       # Transaction distribution
system.tol2bus.trans_dist::UpgradeResp         150478                       # Transaction distribution
system.tol2bus.trans_dist::SCUpgradeFailReq            9                       # Transaction distribution
system.tol2bus.trans_dist::UpgradeFailResp            9                       # Transaction distribution
system.tol2bus.trans_dist::ReadExReq          7397221                       # Transaction distribution
system.tol2bus.trans_dist::ReadExResp         7397221                       # Transaction distribution
system.tol2bus.trans_dist::ReadCleanReq      12929189                       # Transaction distribution
system.tol2bus.trans_dist::ReadSharedReq     13014219                       # Transaction distribution
system.tol2bus.trans_dist::InvalidateReq         6525                       # Transaction distribution
system.tol2bus.pkt_count_system.cpu0.icache.mem_side::system.l2.cpu_side      6269088                       # Packet count per connected master and slave (bytes)
system.tol2bus.pkt_count_system.cpu0.dcache.mem_side::system.l2.cpu_side     36117904                       # Packet count per connected master and slave (bytes)
system.tol2bus.pkt_count_system.cpu0.itb_walker_cache.mem_side::system.l2.cpu_side         2589                       # Packet count per connected master and slave (bytes)
system.tol2bus.pkt_count_system.cpu0.dtb_walker_cache.mem_side::system.l2.cpu_side      4501639                       # Packet count per connected master and slave (bytes)
system.tol2bus.pkt_count_system.cpu1.icache.mem_side::system.l2.cpu_side      3380778                       # Packet count per connected master and slave (bytes)
system.tol2bus.pkt_count_system.cpu1.dcache.mem_side::system.l2.cpu_side      1089265                       # Packet count per connected master and slave (bytes)
system.tol2bus.pkt_count_system.cpu1.itb_walker_cache.mem_side::system.l2.cpu_side         9921                       # Packet count per connected master and slave (bytes)
system.tol2bus.pkt_count_system.cpu1.dtb_walker_cache.mem_side::system.l2.cpu_side        28885                       # Packet count per connected master and slave (bytes)
system.tol2bus.pkt_count_system.cpu2.icache.mem_side::system.l2.cpu_side      5725499                       # Packet count per connected master and slave (bytes)
system.tol2bus.pkt_count_system.cpu2.dcache.mem_side::system.l2.cpu_side     23405023                       # Packet count per connected master and slave (bytes)
system.tol2bus.pkt_count_system.cpu2.itb_walker_cache.mem_side::system.l2.cpu_side         3199                       # Packet count per connected master and slave (bytes)
system.tol2bus.pkt_count_system.cpu2.dtb_walker_cache.mem_side::system.l2.cpu_side       166694                       # Packet count per connected master and slave (bytes)
system.tol2bus.pkt_count_system.cpu3.icache.mem_side::system.l2.cpu_side     18402900                       # Packet count per connected master and slave (bytes)
system.tol2bus.pkt_count_system.cpu3.dcache.mem_side::system.l2.cpu_side       835271                       # Packet count per connected master and slave (bytes)
system.tol2bus.pkt_count_system.cpu3.itb_walker_cache.mem_side::system.l2.cpu_side         5758                       # Packet count per connected master and slave (bytes)
system.tol2bus.pkt_count_system.cpu3.dtb_walker_cache.mem_side::system.l2.cpu_side        18906                       # Packet count per connected master and slave (bytes)
system.tol2bus.pkt_count::total              99963319                       # Packet count per connected master and slave (bytes)
system.tol2bus.pkt_size_system.cpu0.icache.mem_side::system.l2.cpu_side    267480192                       # Cumulative packet size per connected master and slave (bytes)
system.tol2bus.pkt_size_system.cpu0.dcache.mem_side::system.l2.cpu_side   1539262767                       # Cumulative packet size per connected master and slave (bytes)
system.tol2bus.pkt_size_system.cpu0.itb_walker_cache.mem_side::system.l2.cpu_side        73664                       # Cumulative packet size per connected master and slave (bytes)
system.tol2bus.pkt_size_system.cpu0.dtb_walker_cache.mem_side::system.l2.cpu_side    191949440                       # Cumulative packet size per connected master and slave (bytes)
system.tol2bus.pkt_size_system.cpu1.icache.mem_side::system.l2.cpu_side    144245824                       # Cumulative packet size per connected master and slave (bytes)
system.tol2bus.pkt_size_system.cpu1.dcache.mem_side::system.l2.cpu_side     45323492                       # Cumulative packet size per connected master and slave (bytes)
system.tol2bus.pkt_size_system.cpu1.itb_walker_cache.mem_side::system.l2.cpu_side       348288                       # Cumulative packet size per connected master and slave (bytes)
system.tol2bus.pkt_size_system.cpu1.dtb_walker_cache.mem_side::system.l2.cpu_side      1100224                       # Cumulative packet size per connected master and slave (bytes)
system.tol2bus.pkt_size_system.cpu2.icache.mem_side::system.l2.cpu_side    244287488                       # Cumulative packet size per connected master and slave (bytes)
system.tol2bus.pkt_size_system.cpu2.dcache.mem_side::system.l2.cpu_side    988227202                       # Cumulative packet size per connected master and slave (bytes)
system.tol2bus.pkt_size_system.cpu2.itb_walker_cache.mem_side::system.l2.cpu_side        80704                       # Cumulative packet size per connected master and slave (bytes)
system.tol2bus.pkt_size_system.cpu2.dtb_walker_cache.mem_side::system.l2.cpu_side      1950336                       # Cumulative packet size per connected master and slave (bytes)
system.tol2bus.pkt_size_system.cpu3.icache.mem_side::system.l2.cpu_side    785189440                       # Cumulative packet size per connected master and slave (bytes)
system.tol2bus.pkt_size_system.cpu3.dcache.mem_side::system.l2.cpu_side     34657080                       # Cumulative packet size per connected master and slave (bytes)
system.tol2bus.pkt_size_system.cpu3.itb_walker_cache.mem_side::system.l2.cpu_side       164544                       # Cumulative packet size per connected master and slave (bytes)
system.tol2bus.pkt_size_system.cpu3.dtb_walker_cache.mem_side::system.l2.cpu_side       676544                       # Cumulative packet size per connected master and slave (bytes)
system.tol2bus.pkt_size::total             4245017229                       # Cumulative packet size per connected master and slave (bytes)
system.tol2bus.snoops                        22522203                       # Total snoops (count)
system.tol2bus.snoopTraffic                 554853056                       # Total snoop traffic (bytes)
system.tol2bus.snoop_fanout::samples         55819718                       # Request fanout histogram
system.tol2bus.snoop_fanout::mean            0.041600                       # Request fanout histogram
system.tol2bus.snoop_fanout::stdev           0.238539                       # Request fanout histogram
system.tol2bus.snoop_fanout::underflows             0      0.00%      0.00% # Request fanout histogram
system.tol2bus.snoop_fanout::0               53869472     96.51%     96.51% # Request fanout histogram
system.tol2bus.snoop_fanout::1                1660641      2.98%     99.48% # Request fanout histogram
system.tol2bus.snoop_fanout::2                 220301      0.39%     99.88% # Request fanout histogram
system.tol2bus.snoop_fanout::3                  62249      0.11%     99.99% # Request fanout histogram
system.tol2bus.snoop_fanout::4                   3206      0.01%     99.99% # Request fanout histogram
system.tol2bus.snoop_fanout::5                   2267      0.00%    100.00% # Request fanout histogram
system.tol2bus.snoop_fanout::6                   1137      0.00%    100.00% # Request fanout histogram
system.tol2bus.snoop_fanout::7                    445      0.00%    100.00% # Request fanout histogram
system.tol2bus.snoop_fanout::8                      0      0.00%    100.00% # Request fanout histogram
system.tol2bus.snoop_fanout::9                      0      0.00%    100.00% # Request fanout histogram
system.tol2bus.snoop_fanout::10                     0      0.00%    100.00% # Request fanout histogram
system.tol2bus.snoop_fanout::11                     0      0.00%    100.00% # Request fanout histogram
system.tol2bus.snoop_fanout::12                     0      0.00%    100.00% # Request fanout histogram
system.tol2bus.snoop_fanout::13                     0      0.00%    100.00% # Request fanout histogram
system.tol2bus.snoop_fanout::14                     0      0.00%    100.00% # Request fanout histogram
system.tol2bus.snoop_fanout::15                     0      0.00%    100.00% # Request fanout histogram
system.tol2bus.snoop_fanout::16                     0      0.00%    100.00% # Request fanout histogram
system.tol2bus.snoop_fanout::overflows              0      0.00%    100.00% # Request fanout histogram
system.tol2bus.snoop_fanout::min_value              0                       # Request fanout histogram
system.tol2bus.snoop_fanout::max_value              7                       # Request fanout histogram
system.tol2bus.snoop_fanout::total           55819718                       # Request fanout histogram
system.tol2bus.reqLayer0.occupancy        66506168054                       # Layer occupancy (ticks)
system.tol2bus.reqLayer0.utilization             13.2                       # Layer utilization (%)
system.tol2bus.snoopLayer0.occupancy          1545798                       # Layer occupancy (ticks)
system.tol2bus.snoopLayer0.utilization            0.0                       # Layer utilization (%)
system.tol2bus.respLayer0.occupancy        3136540583                       # Layer occupancy (ticks)
system.tol2bus.respLayer0.utilization             0.6                       # Layer utilization (%)
system.tol2bus.respLayer1.occupancy       18116954283                       # Layer occupancy (ticks)
system.tol2bus.respLayer1.utilization             3.6                       # Layer utilization (%)
system.tol2bus.respLayer2.occupancy           2161491                       # Layer occupancy (ticks)
system.tol2bus.respLayer2.utilization             0.0                       # Layer utilization (%)
system.tol2bus.respLayer3.occupancy        2255333602                       # Layer occupancy (ticks)
system.tol2bus.respLayer3.utilization             0.4                       # Layer utilization (%)
system.tol2bus.respLayer4.occupancy        1695760285                       # Layer occupancy (ticks)
system.tol2bus.respLayer4.utilization             0.3                       # Layer utilization (%)
system.tol2bus.respLayer5.occupancy         555116164                       # Layer occupancy (ticks)
system.tol2bus.respLayer5.utilization             0.1                       # Layer utilization (%)
system.tol2bus.respLayer6.occupancy           6764905                       # Layer occupancy (ticks)
system.tol2bus.respLayer6.utilization             0.0                       # Layer utilization (%)
system.tol2bus.respLayer7.occupancy          17642297                       # Layer occupancy (ticks)
system.tol2bus.respLayer7.utilization             0.0                       # Layer utilization (%)
system.tol2bus.respLayer8.occupancy        2871078309                       # Layer occupancy (ticks)
system.tol2bus.respLayer8.utilization             0.6                       # Layer utilization (%)
system.tol2bus.respLayer9.occupancy       11679465356                       # Layer occupancy (ticks)
system.tol2bus.respLayer9.utilization             2.3                       # Layer utilization (%)
system.tol2bus.respLayer10.occupancy          2912988                       # Layer occupancy (ticks)
system.tol2bus.respLayer10.utilization            0.0                       # Layer utilization (%)
system.tol2bus.respLayer11.occupancy        204444271                       # Layer occupancy (ticks)
system.tol2bus.respLayer11.utilization            0.0                       # Layer utilization (%)
system.tol2bus.respLayer12.occupancy       9215795525                       # Layer occupancy (ticks)
system.tol2bus.respLayer12.utilization            1.8                       # Layer utilization (%)
system.tol2bus.respLayer13.occupancy        426826954                       # Layer occupancy (ticks)
system.tol2bus.respLayer13.utilization            0.1                       # Layer utilization (%)
system.tol2bus.respLayer14.occupancy          4796468                       # Layer occupancy (ticks)
system.tol2bus.respLayer14.utilization            0.0                       # Layer utilization (%)
system.tol2bus.respLayer15.occupancy         12559386                       # Layer occupancy (ticks)
system.tol2bus.respLayer15.utilization            0.0                       # Layer utilization (%)
system.switch_cpus0.kern.inst.arm                   0                       # number of arm instructions executed
system.switch_cpus0.kern.inst.quiesce               0                       # number of quiesce instructions executed
system.switch_cpus1.kern.inst.arm                   0                       # number of arm instructions executed
system.switch_cpus1.kern.inst.quiesce               0                       # number of quiesce instructions executed
system.switch_cpus2.kern.inst.arm                   0                       # number of arm instructions executed
system.switch_cpus2.kern.inst.quiesce               0                       # number of quiesce instructions executed
system.switch_cpus3.kern.inst.arm                   0                       # number of arm instructions executed
system.switch_cpus3.kern.inst.quiesce               0                       # number of quiesce instructions executed

---------- End Simulation Statistics   ----------
