
---------- Begin Simulation Statistics ----------
sim_seconds                                  0.504523                       # Number of seconds simulated
sim_ticks                                504522672500                       # Number of ticks simulated
final_tick                               3741057889500                       # Number of ticks from beginning of simulation (restored from checkpoints and never reset)
sim_freq                                 1000000000000                       # Frequency of simulated ticks
host_inst_rate                                 102158                       # Simulator instruction rate (inst/s)
host_op_rate                                   122066                       # Simulator op (including micro ops) rate (op/s)
host_tick_rate                               17356297                       # Simulator tick rate (ticks/s)
host_mem_usage                                2645892                       # Number of bytes of host memory used
host_seconds                                 29068.57                       # Real time elapsed on the host
sim_insts                                  2969598428                       # Number of instructions simulated
sim_ops                                    3548295994                       # Number of ops (including micro ops) simulated
system.voltage_domain.voltage                       1                       # Voltage in Volts
system.clk_domain.clock                          1000                       # Clock period in ticks
system.mem_ctrls.pwrStateResidencyTicks::UNDEFINED 3741057889500                       # Cumulative time (in ticks) in various power states
system.mem_ctrls.bytes_read::l2.prefetcher    463113472                       # Number of bytes read from this memory
system.mem_ctrls.bytes_read::switch_cpus0.dtb.walker      5121600                       # Number of bytes read from this memory
system.mem_ctrls.bytes_read::switch_cpus0.itb.walker        15808                       # Number of bytes read from this memory
system.mem_ctrls.bytes_read::switch_cpus0.inst      8213056                       # Number of bytes read from this memory
system.mem_ctrls.bytes_read::switch_cpus0.data    248184704                       # Number of bytes read from this memory
system.mem_ctrls.bytes_read::switch_cpus1.dtb.walker       241216                       # Number of bytes read from this memory
system.mem_ctrls.bytes_read::switch_cpus1.itb.walker        87744                       # Number of bytes read from this memory
system.mem_ctrls.bytes_read::switch_cpus1.inst     14224896                       # Number of bytes read from this memory
system.mem_ctrls.bytes_read::switch_cpus1.data      5290304                       # Number of bytes read from this memory
system.mem_ctrls.bytes_read::switch_cpus2.dtb.walker       480064                       # Number of bytes read from this memory
system.mem_ctrls.bytes_read::switch_cpus2.itb.walker        32896                       # Number of bytes read from this memory
system.mem_ctrls.bytes_read::switch_cpus2.inst     27798080                       # Number of bytes read from this memory
system.mem_ctrls.bytes_read::switch_cpus2.data     50828928                       # Number of bytes read from this memory
system.mem_ctrls.bytes_read::switch_cpus3.dtb.walker       171648                       # Number of bytes read from this memory
system.mem_ctrls.bytes_read::switch_cpus3.itb.walker        50816                       # Number of bytes read from this memory
system.mem_ctrls.bytes_read::switch_cpus3.inst     35657536                       # Number of bytes read from this memory
system.mem_ctrls.bytes_read::switch_cpus3.data      4989888                       # Number of bytes read from this memory
system.mem_ctrls.bytes_read::total          864502656                       # Number of bytes read from this memory
system.mem_ctrls.bytes_inst_read::switch_cpus0.inst      8213056                       # Number of instructions bytes read from this memory
system.mem_ctrls.bytes_inst_read::switch_cpus1.inst     14224896                       # Number of instructions bytes read from this memory
system.mem_ctrls.bytes_inst_read::switch_cpus2.inst     27798080                       # Number of instructions bytes read from this memory
system.mem_ctrls.bytes_inst_read::switch_cpus3.inst     35657536                       # Number of instructions bytes read from this memory
system.mem_ctrls.bytes_inst_read::total      85893568                       # Number of instructions bytes read from this memory
system.mem_ctrls.bytes_written::writebacks    552854336                       # Number of bytes written to this memory
system.mem_ctrls.bytes_written::total       552854336                       # Number of bytes written to this memory
system.mem_ctrls.num_reads::l2.prefetcher      7236148                       # Number of read requests responded to by this memory
system.mem_ctrls.num_reads::switch_cpus0.dtb.walker        80025                       # Number of read requests responded to by this memory
system.mem_ctrls.num_reads::switch_cpus0.itb.walker          247                       # Number of read requests responded to by this memory
system.mem_ctrls.num_reads::switch_cpus0.inst       128329                       # Number of read requests responded to by this memory
system.mem_ctrls.num_reads::switch_cpus0.data      3877886                       # Number of read requests responded to by this memory
system.mem_ctrls.num_reads::switch_cpus1.dtb.walker         3769                       # Number of read requests responded to by this memory
system.mem_ctrls.num_reads::switch_cpus1.itb.walker         1371                       # Number of read requests responded to by this memory
system.mem_ctrls.num_reads::switch_cpus1.inst       222264                       # Number of read requests responded to by this memory
system.mem_ctrls.num_reads::switch_cpus1.data        82661                       # Number of read requests responded to by this memory
system.mem_ctrls.num_reads::switch_cpus2.dtb.walker         7501                       # Number of read requests responded to by this memory
system.mem_ctrls.num_reads::switch_cpus2.itb.walker          514                       # Number of read requests responded to by this memory
system.mem_ctrls.num_reads::switch_cpus2.inst       434345                       # Number of read requests responded to by this memory
system.mem_ctrls.num_reads::switch_cpus2.data       794202                       # Number of read requests responded to by this memory
system.mem_ctrls.num_reads::switch_cpus3.dtb.walker         2682                       # Number of read requests responded to by this memory
system.mem_ctrls.num_reads::switch_cpus3.itb.walker          794                       # Number of read requests responded to by this memory
system.mem_ctrls.num_reads::switch_cpus3.inst       557149                       # Number of read requests responded to by this memory
system.mem_ctrls.num_reads::switch_cpus3.data        77967                       # Number of read requests responded to by this memory
system.mem_ctrls.num_reads::total            13507854                       # Number of read requests responded to by this memory
system.mem_ctrls.num_writes::writebacks       8638349                       # Number of write requests responded to by this memory
system.mem_ctrls.num_writes::total            8638349                       # Number of write requests responded to by this memory
system.mem_ctrls.bw_read::l2.prefetcher     917924005                       # Total read bandwidth from this memory (bytes/s)
system.mem_ctrls.bw_read::switch_cpus0.dtb.walker     10151377                       # Total read bandwidth from this memory (bytes/s)
system.mem_ctrls.bw_read::switch_cpus0.itb.walker        31333                       # Total read bandwidth from this memory (bytes/s)
system.mem_ctrls.bw_read::switch_cpus0.inst     16278864                       # Total read bandwidth from this memory (bytes/s)
system.mem_ctrls.bw_read::switch_cpus0.data    491919823                       # Total read bandwidth from this memory (bytes/s)
system.mem_ctrls.bw_read::switch_cpus1.dtb.walker       478107                       # Total read bandwidth from this memory (bytes/s)
system.mem_ctrls.bw_read::switch_cpus1.itb.walker       173915                       # Total read bandwidth from this memory (bytes/s)
system.mem_ctrls.bw_read::switch_cpus1.inst     28194761                       # Total read bandwidth from this memory (bytes/s)
system.mem_ctrls.bw_read::switch_cpus1.data     10485761                       # Total read bandwidth from this memory (bytes/s)
system.mem_ctrls.bw_read::switch_cpus2.dtb.walker       951521                       # Total read bandwidth from this memory (bytes/s)
system.mem_ctrls.bw_read::switch_cpus2.itb.walker        65202                       # Total read bandwidth from this memory (bytes/s)
system.mem_ctrls.bw_read::switch_cpus2.inst     55097782                       # Total read bandwidth from this memory (bytes/s)
system.mem_ctrls.bw_read::switch_cpus2.data    100746569                       # Total read bandwidth from this memory (bytes/s)
system.mem_ctrls.bw_read::switch_cpus3.dtb.walker       340219                       # Total read bandwidth from this memory (bytes/s)
system.mem_ctrls.bw_read::switch_cpus3.itb.walker       100721                       # Total read bandwidth from this memory (bytes/s)
system.mem_ctrls.bw_read::switch_cpus3.inst     70675785                       # Total read bandwidth from this memory (bytes/s)
system.mem_ctrls.bw_read::switch_cpus3.data      9890315                       # Total read bandwidth from this memory (bytes/s)
system.mem_ctrls.bw_read::total            1713506059                       # Total read bandwidth from this memory (bytes/s)
system.mem_ctrls.bw_inst_read::switch_cpus0.inst     16278864                       # Instruction read bandwidth from this memory (bytes/s)
system.mem_ctrls.bw_inst_read::switch_cpus1.inst     28194761                       # Instruction read bandwidth from this memory (bytes/s)
system.mem_ctrls.bw_inst_read::switch_cpus2.inst     55097782                       # Instruction read bandwidth from this memory (bytes/s)
system.mem_ctrls.bw_inst_read::switch_cpus3.inst     70675785                       # Instruction read bandwidth from this memory (bytes/s)
system.mem_ctrls.bw_inst_read::total        170247191                       # Instruction read bandwidth from this memory (bytes/s)
system.mem_ctrls.bw_write::writebacks      1095796812                       # Write bandwidth from this memory (bytes/s)
system.mem_ctrls.bw_write::total           1095796812                       # Write bandwidth from this memory (bytes/s)
system.mem_ctrls.bw_total::writebacks      1095796812                       # Total bandwidth to/from this memory (bytes/s)
system.mem_ctrls.bw_total::l2.prefetcher    917924005                       # Total bandwidth to/from this memory (bytes/s)
system.mem_ctrls.bw_total::switch_cpus0.dtb.walker     10151377                       # Total bandwidth to/from this memory (bytes/s)
system.mem_ctrls.bw_total::switch_cpus0.itb.walker        31333                       # Total bandwidth to/from this memory (bytes/s)
system.mem_ctrls.bw_total::switch_cpus0.inst     16278864                       # Total bandwidth to/from this memory (bytes/s)
system.mem_ctrls.bw_total::switch_cpus0.data    491919823                       # Total bandwidth to/from this memory (bytes/s)
system.mem_ctrls.bw_total::switch_cpus1.dtb.walker       478107                       # Total bandwidth to/from this memory (bytes/s)
system.mem_ctrls.bw_total::switch_cpus1.itb.walker       173915                       # Total bandwidth to/from this memory (bytes/s)
system.mem_ctrls.bw_total::switch_cpus1.inst     28194761                       # Total bandwidth to/from this memory (bytes/s)
system.mem_ctrls.bw_total::switch_cpus1.data     10485761                       # Total bandwidth to/from this memory (bytes/s)
system.mem_ctrls.bw_total::switch_cpus2.dtb.walker       951521                       # Total bandwidth to/from this memory (bytes/s)
system.mem_ctrls.bw_total::switch_cpus2.itb.walker        65202                       # Total bandwidth to/from this memory (bytes/s)
system.mem_ctrls.bw_total::switch_cpus2.inst     55097782                       # Total bandwidth to/from this memory (bytes/s)
system.mem_ctrls.bw_total::switch_cpus2.data    100746569                       # Total bandwidth to/from this memory (bytes/s)
system.mem_ctrls.bw_total::switch_cpus3.dtb.walker       340219                       # Total bandwidth to/from this memory (bytes/s)
system.mem_ctrls.bw_total::switch_cpus3.itb.walker       100721                       # Total bandwidth to/from this memory (bytes/s)
system.mem_ctrls.bw_total::switch_cpus3.inst     70675785                       # Total bandwidth to/from this memory (bytes/s)
system.mem_ctrls.bw_total::switch_cpus3.data      9890315                       # Total bandwidth to/from this memory (bytes/s)
system.mem_ctrls.bw_total::total           2809302870                       # Total bandwidth to/from this memory (bytes/s)
system.mem_ctrls.readReqs                    13507854                       # Number of read requests accepted
system.mem_ctrls.writeReqs                    8638349                       # Number of write requests accepted
system.mem_ctrls.readBursts                  13507854                       # Number of DRAM read bursts, including those serviced by the write queue
system.mem_ctrls.writeBursts                  8638349                       # Number of DRAM write bursts, including those merged in the write queue
system.mem_ctrls.bytesReadDRAM              864122432                       # Total number of bytes read from DRAM
system.mem_ctrls.bytesReadWrQ                  380224                       # Total number of bytes read from write queue
system.mem_ctrls.bytesWritten               552852928                       # Total number of bytes written to DRAM
system.mem_ctrls.bytesReadSys               864502656                       # Total read bytes from the system interface side
system.mem_ctrls.bytesWrittenSys            552854336                       # Total written bytes from the system interface side
system.mem_ctrls.servicedByWrQ                   5941                       # Number of DRAM read bursts serviced by the write queue
system.mem_ctrls.mergedWrBursts                     1                       # Number of DRAM write bursts merged with an existing one
system.mem_ctrls.neitherReadNorWriteReqs            0                       # Number of requests that are neither read nor write
system.mem_ctrls.perBankRdBursts::0            785750                       # Per bank write bursts
system.mem_ctrls.perBankRdBursts::1            939677                       # Per bank write bursts
system.mem_ctrls.perBankRdBursts::2            835129                       # Per bank write bursts
system.mem_ctrls.perBankRdBursts::3            821715                       # Per bank write bursts
system.mem_ctrls.perBankRdBursts::4            791456                       # Per bank write bursts
system.mem_ctrls.perBankRdBursts::5            820841                       # Per bank write bursts
system.mem_ctrls.perBankRdBursts::6            867475                       # Per bank write bursts
system.mem_ctrls.perBankRdBursts::7            847342                       # Per bank write bursts
system.mem_ctrls.perBankRdBursts::8            995812                       # Per bank write bursts
system.mem_ctrls.perBankRdBursts::9            750166                       # Per bank write bursts
system.mem_ctrls.perBankRdBursts::10           795812                       # Per bank write bursts
system.mem_ctrls.perBankRdBursts::11          1025749                       # Per bank write bursts
system.mem_ctrls.perBankRdBursts::12           746838                       # Per bank write bursts
system.mem_ctrls.perBankRdBursts::13           796749                       # Per bank write bursts
system.mem_ctrls.perBankRdBursts::14           809996                       # Per bank write bursts
system.mem_ctrls.perBankRdBursts::15           871406                       # Per bank write bursts
system.mem_ctrls.perBankWrBursts::0            525942                       # Per bank write bursts
system.mem_ctrls.perBankWrBursts::1            567537                       # Per bank write bursts
system.mem_ctrls.perBankWrBursts::2            539067                       # Per bank write bursts
system.mem_ctrls.perBankWrBursts::3            556863                       # Per bank write bursts
system.mem_ctrls.perBankWrBursts::4            537481                       # Per bank write bursts
system.mem_ctrls.perBankWrBursts::5            538028                       # Per bank write bursts
system.mem_ctrls.perBankWrBursts::6            565082                       # Per bank write bursts
system.mem_ctrls.perBankWrBursts::7            531407                       # Per bank write bursts
system.mem_ctrls.perBankWrBursts::8            536657                       # Per bank write bursts
system.mem_ctrls.perBankWrBursts::9            513057                       # Per bank write bursts
system.mem_ctrls.perBankWrBursts::10           546531                       # Per bank write bursts
system.mem_ctrls.perBankWrBursts::11           549415                       # Per bank write bursts
system.mem_ctrls.perBankWrBursts::12           533603                       # Per bank write bursts
system.mem_ctrls.perBankWrBursts::13           518615                       # Per bank write bursts
system.mem_ctrls.perBankWrBursts::14           531021                       # Per bank write bursts
system.mem_ctrls.perBankWrBursts::15           548021                       # Per bank write bursts
system.mem_ctrls.numRdRetry                         0                       # Number of times read queue was full causing retry
system.mem_ctrls.numWrRetry                      1263                       # Number of times write queue was full causing retry
system.mem_ctrls.totGap                  504522647000                       # Total gap between requests
system.mem_ctrls.readPktSize::0                     0                       # Read request sizes (log2)
system.mem_ctrls.readPktSize::1                     0                       # Read request sizes (log2)
system.mem_ctrls.readPktSize::2                     0                       # Read request sizes (log2)
system.mem_ctrls.readPktSize::3                     0                       # Read request sizes (log2)
system.mem_ctrls.readPktSize::4                     0                       # Read request sizes (log2)
system.mem_ctrls.readPktSize::5                     0                       # Read request sizes (log2)
system.mem_ctrls.readPktSize::6              13507854                       # Read request sizes (log2)
system.mem_ctrls.writePktSize::0                    0                       # Write request sizes (log2)
system.mem_ctrls.writePktSize::1                    0                       # Write request sizes (log2)
system.mem_ctrls.writePktSize::2                    0                       # Write request sizes (log2)
system.mem_ctrls.writePktSize::3                    0                       # Write request sizes (log2)
system.mem_ctrls.writePktSize::4                    0                       # Write request sizes (log2)
system.mem_ctrls.writePktSize::5                    0                       # Write request sizes (log2)
system.mem_ctrls.writePktSize::6              8638349                       # Write request sizes (log2)
system.mem_ctrls.rdQLenPdf::0                 2822377                       # What read queue length does an incoming req see
system.mem_ctrls.rdQLenPdf::1                 3381929                       # What read queue length does an incoming req see
system.mem_ctrls.rdQLenPdf::2                 1704896                       # What read queue length does an incoming req see
system.mem_ctrls.rdQLenPdf::3                 1245989                       # What read queue length does an incoming req see
system.mem_ctrls.rdQLenPdf::4                 1005994                       # What read queue length does an incoming req see
system.mem_ctrls.rdQLenPdf::5                  796253                       # What read queue length does an incoming req see
system.mem_ctrls.rdQLenPdf::6                  652779                       # What read queue length does an incoming req see
system.mem_ctrls.rdQLenPdf::7                  594323                       # What read queue length does an incoming req see
system.mem_ctrls.rdQLenPdf::8                  519315                       # What read queue length does an incoming req see
system.mem_ctrls.rdQLenPdf::9                  388582                       # What read queue length does an incoming req see
system.mem_ctrls.rdQLenPdf::10                 230340                       # What read queue length does an incoming req see
system.mem_ctrls.rdQLenPdf::11                  98831                       # What read queue length does an incoming req see
system.mem_ctrls.rdQLenPdf::12                  37203                       # What read queue length does an incoming req see
system.mem_ctrls.rdQLenPdf::13                  19021                       # What read queue length does an incoming req see
system.mem_ctrls.rdQLenPdf::14                   3380                       # What read queue length does an incoming req see
system.mem_ctrls.rdQLenPdf::15                    701                       # What read queue length does an incoming req see
system.mem_ctrls.rdQLenPdf::16                      0                       # What read queue length does an incoming req see
system.mem_ctrls.rdQLenPdf::17                      0                       # What read queue length does an incoming req see
system.mem_ctrls.rdQLenPdf::18                      0                       # What read queue length does an incoming req see
system.mem_ctrls.rdQLenPdf::19                      0                       # What read queue length does an incoming req see
system.mem_ctrls.rdQLenPdf::20                      0                       # What read queue length does an incoming req see
system.mem_ctrls.rdQLenPdf::21                      0                       # What read queue length does an incoming req see
system.mem_ctrls.rdQLenPdf::22                      0                       # What read queue length does an incoming req see
system.mem_ctrls.rdQLenPdf::23                      0                       # What read queue length does an incoming req see
system.mem_ctrls.rdQLenPdf::24                      0                       # What read queue length does an incoming req see
system.mem_ctrls.rdQLenPdf::25                      0                       # What read queue length does an incoming req see
system.mem_ctrls.rdQLenPdf::26                      0                       # What read queue length does an incoming req see
system.mem_ctrls.rdQLenPdf::27                      0                       # What read queue length does an incoming req see
system.mem_ctrls.rdQLenPdf::28                      0                       # What read queue length does an incoming req see
system.mem_ctrls.rdQLenPdf::29                      0                       # What read queue length does an incoming req see
system.mem_ctrls.rdQLenPdf::30                      0                       # What read queue length does an incoming req see
system.mem_ctrls.rdQLenPdf::31                      0                       # What read queue length does an incoming req see
system.mem_ctrls.wrQLenPdf::0                       0                       # What write queue length does an incoming req see
system.mem_ctrls.wrQLenPdf::1                       1                       # What write queue length does an incoming req see
system.mem_ctrls.wrQLenPdf::2                       1                       # What write queue length does an incoming req see
system.mem_ctrls.wrQLenPdf::3                       1                       # What write queue length does an incoming req see
system.mem_ctrls.wrQLenPdf::4                       1                       # What write queue length does an incoming req see
system.mem_ctrls.wrQLenPdf::5                       1                       # What write queue length does an incoming req see
system.mem_ctrls.wrQLenPdf::6                       1                       # What write queue length does an incoming req see
system.mem_ctrls.wrQLenPdf::7                       1                       # What write queue length does an incoming req see
system.mem_ctrls.wrQLenPdf::8                       1                       # What write queue length does an incoming req see
system.mem_ctrls.wrQLenPdf::9                       1                       # What write queue length does an incoming req see
system.mem_ctrls.wrQLenPdf::10                      1                       # What write queue length does an incoming req see
system.mem_ctrls.wrQLenPdf::11                      1                       # What write queue length does an incoming req see
system.mem_ctrls.wrQLenPdf::12                      1                       # What write queue length does an incoming req see
system.mem_ctrls.wrQLenPdf::13                      1                       # What write queue length does an incoming req see
system.mem_ctrls.wrQLenPdf::14                      1                       # What write queue length does an incoming req see
system.mem_ctrls.wrQLenPdf::15                  12402                       # What write queue length does an incoming req see
system.mem_ctrls.wrQLenPdf::16                  15565                       # What write queue length does an incoming req see
system.mem_ctrls.wrQLenPdf::17                  77076                       # What write queue length does an incoming req see
system.mem_ctrls.wrQLenPdf::18                 133682                       # What write queue length does an incoming req see
system.mem_ctrls.wrQLenPdf::19                 183346                       # What write queue length does an incoming req see
system.mem_ctrls.wrQLenPdf::20                 241050                       # What write queue length does an incoming req see
system.mem_ctrls.wrQLenPdf::21                 323036                       # What write queue length does an incoming req see
system.mem_ctrls.wrQLenPdf::22                 391638                       # What write queue length does an incoming req see
system.mem_ctrls.wrQLenPdf::23                 452023                       # What write queue length does an incoming req see
system.mem_ctrls.wrQLenPdf::24                 505410                       # What write queue length does an incoming req see
system.mem_ctrls.wrQLenPdf::25                 555523                       # What write queue length does an incoming req see
system.mem_ctrls.wrQLenPdf::26                 607585                       # What write queue length does an incoming req see
system.mem_ctrls.wrQLenPdf::27                 658182                       # What write queue length does an incoming req see
system.mem_ctrls.wrQLenPdf::28                 717835                       # What write queue length does an incoming req see
system.mem_ctrls.wrQLenPdf::29                 800143                       # What write queue length does an incoming req see
system.mem_ctrls.wrQLenPdf::30                 824023                       # What write queue length does an incoming req see
system.mem_ctrls.wrQLenPdf::31                 810794                       # What write queue length does an incoming req see
system.mem_ctrls.wrQLenPdf::32                 720768                       # What write queue length does an incoming req see
system.mem_ctrls.wrQLenPdf::33                 150221                       # What write queue length does an incoming req see
system.mem_ctrls.wrQLenPdf::34                  95404                       # What write queue length does an incoming req see
system.mem_ctrls.wrQLenPdf::35                  63747                       # What write queue length does an incoming req see
system.mem_ctrls.wrQLenPdf::36                  45525                       # What write queue length does an incoming req see
system.mem_ctrls.wrQLenPdf::37                  33338                       # What write queue length does an incoming req see
system.mem_ctrls.wrQLenPdf::38                  25691                       # What write queue length does an incoming req see
system.mem_ctrls.wrQLenPdf::39                  19893                       # What write queue length does an incoming req see
system.mem_ctrls.wrQLenPdf::40                  16355                       # What write queue length does an incoming req see
system.mem_ctrls.wrQLenPdf::41                  13877                       # What write queue length does an incoming req see
system.mem_ctrls.wrQLenPdf::42                  12303                       # What write queue length does an incoming req see
system.mem_ctrls.wrQLenPdf::43                  10765                       # What write queue length does an incoming req see
system.mem_ctrls.wrQLenPdf::44                   9933                       # What write queue length does an incoming req see
system.mem_ctrls.wrQLenPdf::45                   9027                       # What write queue length does an incoming req see
system.mem_ctrls.wrQLenPdf::46                   8637                       # What write queue length does an incoming req see
system.mem_ctrls.wrQLenPdf::47                   8060                       # What write queue length does an incoming req see
system.mem_ctrls.wrQLenPdf::48                   7656                       # What write queue length does an incoming req see
system.mem_ctrls.wrQLenPdf::49                   7339                       # What write queue length does an incoming req see
system.mem_ctrls.wrQLenPdf::50                   6963                       # What write queue length does an incoming req see
system.mem_ctrls.wrQLenPdf::51                   7234                       # What write queue length does an incoming req see
system.mem_ctrls.wrQLenPdf::52                   7296                       # What write queue length does an incoming req see
system.mem_ctrls.wrQLenPdf::53                   7262                       # What write queue length does an incoming req see
system.mem_ctrls.wrQLenPdf::54                   7260                       # What write queue length does an incoming req see
system.mem_ctrls.wrQLenPdf::55                   7116                       # What write queue length does an incoming req see
system.mem_ctrls.wrQLenPdf::56                   5103                       # What write queue length does an incoming req see
system.mem_ctrls.wrQLenPdf::57                   4449                       # What write queue length does an incoming req see
system.mem_ctrls.wrQLenPdf::58                   3803                       # What write queue length does an incoming req see
system.mem_ctrls.wrQLenPdf::59                   3264                       # What write queue length does an incoming req see
system.mem_ctrls.wrQLenPdf::60                   2591                       # What write queue length does an incoming req see
system.mem_ctrls.wrQLenPdf::61                   2212                       # What write queue length does an incoming req see
system.mem_ctrls.wrQLenPdf::62                   1969                       # What write queue length does an incoming req see
system.mem_ctrls.wrQLenPdf::63                   3960                       # What write queue length does an incoming req see
system.mem_ctrls.bytesPerActivate::samples     11009894                       # Bytes accessed per row activation
system.mem_ctrls.bytesPerActivate::mean    128.700153                       # Bytes accessed per row activation
system.mem_ctrls.bytesPerActivate::gmean    89.222457                       # Bytes accessed per row activation
system.mem_ctrls.bytesPerActivate::stdev   178.155436                       # Bytes accessed per row activation
system.mem_ctrls.bytesPerActivate::0-127      8282020     75.22%     75.22% # Bytes accessed per row activation
system.mem_ctrls.bytesPerActivate::128-255      1547818     14.06%     89.28% # Bytes accessed per row activation
system.mem_ctrls.bytesPerActivate::256-383       405389      3.68%     92.96% # Bytes accessed per row activation
system.mem_ctrls.bytesPerActivate::384-511       175499      1.59%     94.56% # Bytes accessed per row activation
system.mem_ctrls.bytesPerActivate::512-639       189700      1.72%     96.28% # Bytes accessed per row activation
system.mem_ctrls.bytesPerActivate::640-767        87410      0.79%     97.07% # Bytes accessed per row activation
system.mem_ctrls.bytesPerActivate::768-895        54173      0.49%     97.57% # Bytes accessed per row activation
system.mem_ctrls.bytesPerActivate::896-1023        62495      0.57%     98.13% # Bytes accessed per row activation
system.mem_ctrls.bytesPerActivate::1024-1151       205390      1.87%    100.00% # Bytes accessed per row activation
system.mem_ctrls.bytesPerActivate::total     11009894                       # Bytes accessed per row activation
system.mem_ctrls.rdPerTurnAround::samples       535682                       # Reads before turning the bus around for writes
system.mem_ctrls.rdPerTurnAround::mean      25.243036                       # Reads before turning the bus around for writes
system.mem_ctrls.rdPerTurnAround::stdev     41.469860                       # Reads before turning the bus around for writes
system.mem_ctrls.rdPerTurnAround::0-1023       535674    100.00%    100.00% # Reads before turning the bus around for writes
system.mem_ctrls.rdPerTurnAround::1024-2047            7      0.00%    100.00% # Reads before turning the bus around for writes
system.mem_ctrls.rdPerTurnAround::27648-28671            1      0.00%    100.00% # Reads before turning the bus around for writes
system.mem_ctrls.rdPerTurnAround::total        535682                       # Reads before turning the bus around for writes
system.mem_ctrls.wrPerTurnAround::samples       535682                       # Writes before turning the bus around for reads
system.mem_ctrls.wrPerTurnAround::mean      16.125849                       # Writes before turning the bus around for reads
system.mem_ctrls.wrPerTurnAround::gmean     16.106998                       # Writes before turning the bus around for reads
system.mem_ctrls.wrPerTurnAround::stdev      1.027239                       # Writes before turning the bus around for reads
system.mem_ctrls.wrPerTurnAround::16-19        530120     98.96%     98.96% # Writes before turning the bus around for reads
system.mem_ctrls.wrPerTurnAround::20-23          4501      0.84%     99.80% # Writes before turning the bus around for reads
system.mem_ctrls.wrPerTurnAround::24-27           642      0.12%     99.92% # Writes before turning the bus around for reads
system.mem_ctrls.wrPerTurnAround::28-31           162      0.03%     99.95% # Writes before turning the bus around for reads
system.mem_ctrls.wrPerTurnAround::32-35            81      0.02%     99.97% # Writes before turning the bus around for reads
system.mem_ctrls.wrPerTurnAround::36-39            42      0.01%     99.97% # Writes before turning the bus around for reads
system.mem_ctrls.wrPerTurnAround::40-43            23      0.00%     99.98% # Writes before turning the bus around for reads
system.mem_ctrls.wrPerTurnAround::44-47            24      0.00%     99.98% # Writes before turning the bus around for reads
system.mem_ctrls.wrPerTurnAround::48-51            13      0.00%     99.99% # Writes before turning the bus around for reads
system.mem_ctrls.wrPerTurnAround::52-55            10      0.00%     99.99% # Writes before turning the bus around for reads
system.mem_ctrls.wrPerTurnAround::56-59            12      0.00%     99.99% # Writes before turning the bus around for reads
system.mem_ctrls.wrPerTurnAround::60-63            10      0.00%     99.99% # Writes before turning the bus around for reads
system.mem_ctrls.wrPerTurnAround::64-67            14      0.00%     99.99% # Writes before turning the bus around for reads
system.mem_ctrls.wrPerTurnAround::68-71             8      0.00%    100.00% # Writes before turning the bus around for reads
system.mem_ctrls.wrPerTurnAround::72-75             5      0.00%    100.00% # Writes before turning the bus around for reads
system.mem_ctrls.wrPerTurnAround::76-79             4      0.00%    100.00% # Writes before turning the bus around for reads
system.mem_ctrls.wrPerTurnAround::80-83             3      0.00%    100.00% # Writes before turning the bus around for reads
system.mem_ctrls.wrPerTurnAround::84-87             1      0.00%    100.00% # Writes before turning the bus around for reads
system.mem_ctrls.wrPerTurnAround::88-91             2      0.00%    100.00% # Writes before turning the bus around for reads
system.mem_ctrls.wrPerTurnAround::92-95             1      0.00%    100.00% # Writes before turning the bus around for reads
system.mem_ctrls.wrPerTurnAround::96-99             1      0.00%    100.00% # Writes before turning the bus around for reads
system.mem_ctrls.wrPerTurnAround::120-123            1      0.00%    100.00% # Writes before turning the bus around for reads
system.mem_ctrls.wrPerTurnAround::124-127            1      0.00%    100.00% # Writes before turning the bus around for reads
system.mem_ctrls.wrPerTurnAround::128-131            1      0.00%    100.00% # Writes before turning the bus around for reads
system.mem_ctrls.wrPerTurnAround::total        535682                       # Writes before turning the bus around for reads
system.mem_ctrls.totQLat                 1118126991050                       # Total ticks spent queuing
system.mem_ctrls.totMemAccLat            1371287859800                       # Total ticks spent from burst creation until serviced by the DRAM
system.mem_ctrls.totBusLat                67509565000                       # Total ticks spent in databus transfers
system.mem_ctrls.avgQLat                     82812.49                       # Average queueing delay per DRAM burst
system.mem_ctrls.avgBusLat                    5000.00                       # Average bus latency per DRAM burst
system.mem_ctrls.avgMemAccLat               101562.49                       # Average memory access latency per DRAM burst
system.mem_ctrls.avgRdBW                      1712.75                       # Average DRAM read bandwidth in MiByte/s
system.mem_ctrls.avgWrBW                      1095.79                       # Average achieved write bandwidth in MiByte/s
system.mem_ctrls.avgRdBWSys                   1713.51                       # Average system read bandwidth in MiByte/s
system.mem_ctrls.avgWrBWSys                   1095.80                       # Average system write bandwidth in MiByte/s
system.mem_ctrls.peakBW                      12800.00                       # Theoretical peak bandwidth in MiByte/s
system.mem_ctrls.busUtil                        21.94                       # Data bus utilization in percentage
system.mem_ctrls.busUtilRead                    13.38                       # Data bus utilization in percentage for reads
system.mem_ctrls.busUtilWrite                    8.56                       # Data bus utilization in percentage for writes
system.mem_ctrls.avgRdQLen                       3.74                       # Average read queue length when enqueuing
system.mem_ctrls.avgWrQLen                      27.44                       # Average write queue length when enqueuing
system.mem_ctrls.readRowHits                  8071240                       # Number of row buffer hits during reads
system.mem_ctrls.writeRowHits                 3059103                       # Number of row buffer hits during writes
system.mem_ctrls.readRowHitRate                 59.78                       # Row buffer hit rate for reads
system.mem_ctrls.writeRowHitRate                35.41                       # Row buffer hit rate for writes
system.mem_ctrls.avgGap                      22781.45                       # Average gap between requests
system.mem_ctrls.pageHitRate                    50.27                       # Row buffer hit rate, read and write combined
system.mem_ctrls_0.actEnergy              41854488480                       # Energy for activate commands per rank (pJ)
system.mem_ctrls_0.preEnergy              22837270500                       # Energy for precharge commands per rank (pJ)
system.mem_ctrls_0.readEnergy             52412513400                       # Energy for read commands per rank (pJ)
system.mem_ctrls_0.writeEnergy            28261891440                       # Energy for write commands per rank (pJ)
system.mem_ctrls_0.refreshEnergy          32997407040                       # Energy for refresh commands per rank (pJ)
system.mem_ctrls_0.actBackEnergy         338397357465                       # Energy for active background per rank (pJ)
system.mem_ctrls_0.preBackEnergy           6282195750                       # Energy for precharge background per rank (pJ)
system.mem_ctrls_0.totalEnergy           523043124075                       # Total energy per rank (pJ)
system.mem_ctrls_0.averagePower           1035.312158                       # Core power per rank (mW)
system.mem_ctrls_0.memoryStateTime::IDLE   8219300123                       # Time in different power states
system.mem_ctrls_0.memoryStateTime::REF   16846960000                       # Time in different power states
system.mem_ctrls_0.memoryStateTime::PRE_PDN            0                       # Time in different power states
system.mem_ctrls_0.memoryStateTime::ACT  479451276877                       # Time in different power states
system.mem_ctrls_0.memoryStateTime::ACT_PDN            0                       # Time in different power states
system.mem_ctrls_1.actEnergy              41433373800                       # Energy for activate commands per rank (pJ)
system.mem_ctrls_1.preEnergy              22607495625                       # Energy for precharge commands per rank (pJ)
system.mem_ctrls_1.readEnergy             53060030400                       # Energy for read commands per rank (pJ)
system.mem_ctrls_1.writeEnergy            27714363840                       # Energy for write commands per rank (pJ)
system.mem_ctrls_1.refreshEnergy          32997407040                       # Energy for refresh commands per rank (pJ)
system.mem_ctrls_1.actBackEnergy         340175916495                       # Energy for active background per rank (pJ)
system.mem_ctrls_1.preBackEnergy           4722056250                       # Energy for precharge background per rank (pJ)
system.mem_ctrls_1.totalEnergy           522710643450                       # Total energy per rank (pJ)
system.mem_ctrls_1.averagePower           1034.654046                       # Core power per rank (mW)
system.mem_ctrls_1.memoryStateTime::IDLE   5668378979                       # Time in different power states
system.mem_ctrls_1.memoryStateTime::REF   16846960000                       # Time in different power states
system.mem_ctrls_1.memoryStateTime::PRE_PDN            0                       # Time in different power states
system.mem_ctrls_1.memoryStateTime::ACT  482002490021                       # Time in different power states
system.mem_ctrls_1.memoryStateTime::ACT_PDN            0                       # Time in different power states
system.realview.nvmem.pwrStateResidencyTicks::UNDEFINED 3741057889500                       # Cumulative time (in ticks) in various power states
system.realview.vram.pwrStateResidencyTicks::UNDEFINED 3741057889500                       # Cumulative time (in ticks) in various power states
system.pwrStateResidencyTicks::UNDEFINED 3741057889500                       # Cumulative time (in ticks) in various power states
system.bridge.pwrStateResidencyTicks::UNDEFINED 3741057889500                       # Cumulative time (in ticks) in various power states
system.cf0.dma_read_full_pages                      0                       # Number of full page size DMA reads (not PRD).
system.cf0.dma_read_bytes                           0                       # Number of bytes transfered via DMA reads (not PRD).
system.cf0.dma_read_txs                             0                       # Number of DMA read transactions (not PRD).
system.cf0.dma_write_full_pages                  2334                       # Number of full page size DMA writes.
system.cf0.dma_write_bytes                    9636864                       # Number of bytes transfered via DMA writes.
system.cf0.dma_write_txs                         2404                       # Number of DMA write transactions.
system.cpu_voltage_domain.voltage                   1                       # Voltage in Volts
system.cpu_clk_domain.clock                       500                       # Clock period in ticks
system.cpu0.dstage2_mmu.stage2_tlb.walker.pwrStateResidencyTicks::UNDEFINED 3741057889500                       # Cumulative time (in ticks) in various power states
system.cpu0.dstage2_mmu.stage2_tlb.walker.walks            0                       # Table walker walks requested
system.cpu0.dstage2_mmu.stage2_tlb.walker.walkRequestOrigin_Requested::Data            0                       # Table walker requests started/completed, data/inst
system.cpu0.dstage2_mmu.stage2_tlb.walker.walkRequestOrigin_Requested::Inst            0                       # Table walker requests started/completed, data/inst
system.cpu0.dstage2_mmu.stage2_tlb.walker.walkRequestOrigin_Requested::total            0                       # Table walker requests started/completed, data/inst
system.cpu0.dstage2_mmu.stage2_tlb.walker.walkRequestOrigin_Completed::Data            0                       # Table walker requests started/completed, data/inst
system.cpu0.dstage2_mmu.stage2_tlb.walker.walkRequestOrigin_Completed::Inst            0                       # Table walker requests started/completed, data/inst
system.cpu0.dstage2_mmu.stage2_tlb.walker.walkRequestOrigin_Completed::total            0                       # Table walker requests started/completed, data/inst
system.cpu0.dstage2_mmu.stage2_tlb.walker.walkRequestOrigin::total            0                       # Table walker requests started/completed, data/inst
system.cpu0.dstage2_mmu.stage2_tlb.inst_hits            0                       # ITB inst hits
system.cpu0.dstage2_mmu.stage2_tlb.inst_misses            0                       # ITB inst misses
system.cpu0.dstage2_mmu.stage2_tlb.read_hits            0                       # DTB read hits
system.cpu0.dstage2_mmu.stage2_tlb.read_misses            0                       # DTB read misses
system.cpu0.dstage2_mmu.stage2_tlb.write_hits            0                       # DTB write hits
system.cpu0.dstage2_mmu.stage2_tlb.write_misses            0                       # DTB write misses
system.cpu0.dstage2_mmu.stage2_tlb.flush_tlb            0                       # Number of times complete TLB was flushed
system.cpu0.dstage2_mmu.stage2_tlb.flush_tlb_mva            0                       # Number of times TLB was flushed by MVA
system.cpu0.dstage2_mmu.stage2_tlb.flush_tlb_mva_asid            0                       # Number of times TLB was flushed by MVA & ASID
system.cpu0.dstage2_mmu.stage2_tlb.flush_tlb_asid            0                       # Number of times TLB was flushed by ASID
system.cpu0.dstage2_mmu.stage2_tlb.flush_entries            0                       # Number of entries that have been flushed from TLB
system.cpu0.dstage2_mmu.stage2_tlb.align_faults            0                       # Number of TLB faults due to alignment restrictions
system.cpu0.dstage2_mmu.stage2_tlb.prefetch_faults            0                       # Number of TLB faults due to prefetch
system.cpu0.dstage2_mmu.stage2_tlb.domain_faults            0                       # Number of TLB faults due to domain restrictions
system.cpu0.dstage2_mmu.stage2_tlb.perms_faults            0                       # Number of TLB faults due to permissions restrictions
system.cpu0.dstage2_mmu.stage2_tlb.read_accesses            0                       # DTB read accesses
system.cpu0.dstage2_mmu.stage2_tlb.write_accesses            0                       # DTB write accesses
system.cpu0.dstage2_mmu.stage2_tlb.inst_accesses            0                       # ITB inst accesses
system.cpu0.dstage2_mmu.stage2_tlb.hits             0                       # DTB hits
system.cpu0.dstage2_mmu.stage2_tlb.misses            0                       # DTB misses
system.cpu0.dstage2_mmu.stage2_tlb.accesses            0                       # DTB accesses
system.cpu0.dtb.walker.pwrStateResidencyTicks::UNDEFINED 3741057889500                       # Cumulative time (in ticks) in various power states
system.cpu0.dtb.walker.walks                        0                       # Table walker walks requested
system.cpu0.dtb.walker.walkRequestOrigin_Requested::Data            0                       # Table walker requests started/completed, data/inst
system.cpu0.dtb.walker.walkRequestOrigin_Requested::Inst            0                       # Table walker requests started/completed, data/inst
system.cpu0.dtb.walker.walkRequestOrigin_Requested::total            0                       # Table walker requests started/completed, data/inst
system.cpu0.dtb.walker.walkRequestOrigin_Completed::Data            0                       # Table walker requests started/completed, data/inst
system.cpu0.dtb.walker.walkRequestOrigin_Completed::Inst            0                       # Table walker requests started/completed, data/inst
system.cpu0.dtb.walker.walkRequestOrigin_Completed::total            0                       # Table walker requests started/completed, data/inst
system.cpu0.dtb.walker.walkRequestOrigin::total            0                       # Table walker requests started/completed, data/inst
system.cpu0.dtb.inst_hits                           0                       # ITB inst hits
system.cpu0.dtb.inst_misses                         0                       # ITB inst misses
system.cpu0.dtb.read_hits                           0                       # DTB read hits
system.cpu0.dtb.read_misses                         0                       # DTB read misses
system.cpu0.dtb.write_hits                          0                       # DTB write hits
system.cpu0.dtb.write_misses                        0                       # DTB write misses
system.cpu0.dtb.flush_tlb                           0                       # Number of times complete TLB was flushed
system.cpu0.dtb.flush_tlb_mva                       0                       # Number of times TLB was flushed by MVA
system.cpu0.dtb.flush_tlb_mva_asid                  0                       # Number of times TLB was flushed by MVA & ASID
system.cpu0.dtb.flush_tlb_asid                      0                       # Number of times TLB was flushed by ASID
system.cpu0.dtb.flush_entries                       0                       # Number of entries that have been flushed from TLB
system.cpu0.dtb.align_faults                        0                       # Number of TLB faults due to alignment restrictions
system.cpu0.dtb.prefetch_faults                     0                       # Number of TLB faults due to prefetch
system.cpu0.dtb.domain_faults                       0                       # Number of TLB faults due to domain restrictions
system.cpu0.dtb.perms_faults                        0                       # Number of TLB faults due to permissions restrictions
system.cpu0.dtb.read_accesses                       0                       # DTB read accesses
system.cpu0.dtb.write_accesses                      0                       # DTB write accesses
system.cpu0.dtb.inst_accesses                       0                       # ITB inst accesses
system.cpu0.dtb.hits                                0                       # DTB hits
system.cpu0.dtb.misses                              0                       # DTB misses
system.cpu0.dtb.accesses                            0                       # DTB accesses
system.cpu0.istage2_mmu.stage2_tlb.walker.pwrStateResidencyTicks::UNDEFINED 3741057889500                       # Cumulative time (in ticks) in various power states
system.cpu0.istage2_mmu.stage2_tlb.walker.walks            0                       # Table walker walks requested
system.cpu0.istage2_mmu.stage2_tlb.walker.walkRequestOrigin_Requested::Data            0                       # Table walker requests started/completed, data/inst
system.cpu0.istage2_mmu.stage2_tlb.walker.walkRequestOrigin_Requested::Inst            0                       # Table walker requests started/completed, data/inst
system.cpu0.istage2_mmu.stage2_tlb.walker.walkRequestOrigin_Requested::total            0                       # Table walker requests started/completed, data/inst
system.cpu0.istage2_mmu.stage2_tlb.walker.walkRequestOrigin_Completed::Data            0                       # Table walker requests started/completed, data/inst
system.cpu0.istage2_mmu.stage2_tlb.walker.walkRequestOrigin_Completed::Inst            0                       # Table walker requests started/completed, data/inst
system.cpu0.istage2_mmu.stage2_tlb.walker.walkRequestOrigin_Completed::total            0                       # Table walker requests started/completed, data/inst
system.cpu0.istage2_mmu.stage2_tlb.walker.walkRequestOrigin::total            0                       # Table walker requests started/completed, data/inst
system.cpu0.istage2_mmu.stage2_tlb.inst_hits            0                       # ITB inst hits
system.cpu0.istage2_mmu.stage2_tlb.inst_misses            0                       # ITB inst misses
system.cpu0.istage2_mmu.stage2_tlb.read_hits            0                       # DTB read hits
system.cpu0.istage2_mmu.stage2_tlb.read_misses            0                       # DTB read misses
system.cpu0.istage2_mmu.stage2_tlb.write_hits            0                       # DTB write hits
system.cpu0.istage2_mmu.stage2_tlb.write_misses            0                       # DTB write misses
system.cpu0.istage2_mmu.stage2_tlb.flush_tlb            0                       # Number of times complete TLB was flushed
system.cpu0.istage2_mmu.stage2_tlb.flush_tlb_mva            0                       # Number of times TLB was flushed by MVA
system.cpu0.istage2_mmu.stage2_tlb.flush_tlb_mva_asid            0                       # Number of times TLB was flushed by MVA & ASID
system.cpu0.istage2_mmu.stage2_tlb.flush_tlb_asid            0                       # Number of times TLB was flushed by ASID
system.cpu0.istage2_mmu.stage2_tlb.flush_entries            0                       # Number of entries that have been flushed from TLB
system.cpu0.istage2_mmu.stage2_tlb.align_faults            0                       # Number of TLB faults due to alignment restrictions
system.cpu0.istage2_mmu.stage2_tlb.prefetch_faults            0                       # Number of TLB faults due to prefetch
system.cpu0.istage2_mmu.stage2_tlb.domain_faults            0                       # Number of TLB faults due to domain restrictions
system.cpu0.istage2_mmu.stage2_tlb.perms_faults            0                       # Number of TLB faults due to permissions restrictions
system.cpu0.istage2_mmu.stage2_tlb.read_accesses            0                       # DTB read accesses
system.cpu0.istage2_mmu.stage2_tlb.write_accesses            0                       # DTB write accesses
system.cpu0.istage2_mmu.stage2_tlb.inst_accesses            0                       # ITB inst accesses
system.cpu0.istage2_mmu.stage2_tlb.hits             0                       # DTB hits
system.cpu0.istage2_mmu.stage2_tlb.misses            0                       # DTB misses
system.cpu0.istage2_mmu.stage2_tlb.accesses            0                       # DTB accesses
system.cpu0.itb.walker.pwrStateResidencyTicks::UNDEFINED 3741057889500                       # Cumulative time (in ticks) in various power states
system.cpu0.itb.walker.walks                        0                       # Table walker walks requested
system.cpu0.itb.walker.walkRequestOrigin_Requested::Data            0                       # Table walker requests started/completed, data/inst
system.cpu0.itb.walker.walkRequestOrigin_Requested::Inst            0                       # Table walker requests started/completed, data/inst
system.cpu0.itb.walker.walkRequestOrigin_Requested::total            0                       # Table walker requests started/completed, data/inst
system.cpu0.itb.walker.walkRequestOrigin_Completed::Data            0                       # Table walker requests started/completed, data/inst
system.cpu0.itb.walker.walkRequestOrigin_Completed::Inst            0                       # Table walker requests started/completed, data/inst
system.cpu0.itb.walker.walkRequestOrigin_Completed::total            0                       # Table walker requests started/completed, data/inst
system.cpu0.itb.walker.walkRequestOrigin::total            0                       # Table walker requests started/completed, data/inst
system.cpu0.itb.inst_hits                           0                       # ITB inst hits
system.cpu0.itb.inst_misses                         0                       # ITB inst misses
system.cpu0.itb.read_hits                           0                       # DTB read hits
system.cpu0.itb.read_misses                         0                       # DTB read misses
system.cpu0.itb.write_hits                          0                       # DTB write hits
system.cpu0.itb.write_misses                        0                       # DTB write misses
system.cpu0.itb.flush_tlb                           0                       # Number of times complete TLB was flushed
system.cpu0.itb.flush_tlb_mva                       0                       # Number of times TLB was flushed by MVA
system.cpu0.itb.flush_tlb_mva_asid                  0                       # Number of times TLB was flushed by MVA & ASID
system.cpu0.itb.flush_tlb_asid                      0                       # Number of times TLB was flushed by ASID
system.cpu0.itb.flush_entries                       0                       # Number of entries that have been flushed from TLB
system.cpu0.itb.align_faults                        0                       # Number of TLB faults due to alignment restrictions
system.cpu0.itb.prefetch_faults                     0                       # Number of TLB faults due to prefetch
system.cpu0.itb.domain_faults                       0                       # Number of TLB faults due to domain restrictions
system.cpu0.itb.perms_faults                        0                       # Number of TLB faults due to permissions restrictions
system.cpu0.itb.read_accesses                       0                       # DTB read accesses
system.cpu0.itb.write_accesses                      0                       # DTB write accesses
system.cpu0.itb.inst_accesses                       0                       # ITB inst accesses
system.cpu0.itb.hits                                0                       # DTB hits
system.cpu0.itb.misses                              0                       # DTB misses
system.cpu0.itb.accesses                            0                       # DTB accesses
system.cpu0.pwrStateResidencyTicks::ON   505210694000                       # Cumulative time (in ticks) in various power states
system.cpu0.numCycles                               0                       # number of cpu cycles simulated
system.cpu0.numWorkItemsStarted                     0                       # number of work items this cpu started
system.cpu0.numWorkItemsCompleted                   0                       # number of work items this cpu completed
system.cpu0.kern.inst.arm                           0                       # number of arm instructions executed
system.cpu0.kern.inst.quiesce                     485                       # number of quiesce instructions executed
system.cpu0.committedInsts                          0                       # Number of instructions committed
system.cpu0.committedOps                            0                       # Number of ops (including micro ops) committed
system.cpu0.num_int_alu_accesses                    0                       # Number of integer alu accesses
system.cpu0.num_fp_alu_accesses                     0                       # Number of float alu accesses
system.cpu0.num_func_calls                          0                       # number of times a function call or return occured
system.cpu0.num_conditional_control_insts            0                       # number of instructions that are conditional controls
system.cpu0.num_int_insts                           0                       # number of integer instructions
system.cpu0.num_fp_insts                            0                       # number of float instructions
system.cpu0.num_int_register_reads                  0                       # number of times the integer registers were read
system.cpu0.num_int_register_writes                 0                       # number of times the integer registers were written
system.cpu0.num_fp_register_reads                   0                       # number of times the floating registers were read
system.cpu0.num_fp_register_writes                  0                       # number of times the floating registers were written
system.cpu0.num_mem_refs                            0                       # number of memory refs
system.cpu0.num_load_insts                          0                       # Number of load instructions
system.cpu0.num_store_insts                         0                       # Number of store instructions
system.cpu0.num_idle_cycles                         0                       # Number of idle cycles
system.cpu0.num_busy_cycles                         0                       # Number of busy cycles
system.cpu0.not_idle_fraction                       0                       # Percentage of non-idle cycles
system.cpu0.idle_fraction                           1                       # Percentage of idle cycles
system.cpu0.op_class::No_OpClass                    0                       # Class of executed instruction
system.cpu0.op_class::IntAlu                        0                       # Class of executed instruction
system.cpu0.op_class::IntMult                       0                       # Class of executed instruction
system.cpu0.op_class::IntDiv                        0                       # Class of executed instruction
system.cpu0.op_class::FloatAdd                      0                       # Class of executed instruction
system.cpu0.op_class::FloatCmp                      0                       # Class of executed instruction
system.cpu0.op_class::FloatCvt                      0                       # Class of executed instruction
system.cpu0.op_class::FloatMult                     0                       # Class of executed instruction
system.cpu0.op_class::FloatDiv                      0                       # Class of executed instruction
system.cpu0.op_class::FloatSqrt                     0                       # Class of executed instruction
system.cpu0.op_class::SimdAdd                       0                       # Class of executed instruction
system.cpu0.op_class::SimdAddAcc                    0                       # Class of executed instruction
system.cpu0.op_class::SimdAlu                       0                       # Class of executed instruction
system.cpu0.op_class::SimdCmp                       0                       # Class of executed instruction
system.cpu0.op_class::SimdCvt                       0                       # Class of executed instruction
system.cpu0.op_class::SimdMisc                      0                       # Class of executed instruction
system.cpu0.op_class::SimdMult                      0                       # Class of executed instruction
system.cpu0.op_class::SimdMultAcc                   0                       # Class of executed instruction
system.cpu0.op_class::SimdShift                     0                       # Class of executed instruction
system.cpu0.op_class::SimdShiftAcc                  0                       # Class of executed instruction
system.cpu0.op_class::SimdSqrt                      0                       # Class of executed instruction
system.cpu0.op_class::SimdFloatAdd                  0                       # Class of executed instruction
system.cpu0.op_class::SimdFloatAlu                  0                       # Class of executed instruction
system.cpu0.op_class::SimdFloatCmp                  0                       # Class of executed instruction
system.cpu0.op_class::SimdFloatCvt                  0                       # Class of executed instruction
system.cpu0.op_class::SimdFloatDiv                  0                       # Class of executed instruction
system.cpu0.op_class::SimdFloatMisc                 0                       # Class of executed instruction
system.cpu0.op_class::SimdFloatMult                 0                       # Class of executed instruction
system.cpu0.op_class::SimdFloatMultAcc              0                       # Class of executed instruction
system.cpu0.op_class::SimdFloatSqrt                 0                       # Class of executed instruction
system.cpu0.op_class::MemRead                       0                       # Class of executed instruction
system.cpu0.op_class::MemWrite                      0                       # Class of executed instruction
system.cpu0.op_class::IprAccess                     0                       # Class of executed instruction
system.cpu0.op_class::InstPrefetch                  0                       # Class of executed instruction
system.cpu0.op_class::total                         0                       # Class of executed instruction
system.cpu0.dcache.tags.pwrStateResidencyTicks::UNDEFINED 3741057889500                       # Cumulative time (in ticks) in various power states
system.cpu0.dcache.tags.replacements         12137401                       # number of replacements
system.cpu0.dcache.tags.tagsinuse         1021.710849                       # Cycle average of tags in use
system.cpu0.dcache.tags.total_refs          144089702                       # Total number of references to valid blocks.
system.cpu0.dcache.tags.sampled_refs         12138281                       # Sample count of references to valid blocks.
system.cpu0.dcache.tags.avg_refs            11.870684                       # Average number of references to valid blocks.
system.cpu0.dcache.tags.warmup_cycle     3237880261000                       # Cycle when the warmup percentage was hit.
system.cpu0.dcache.tags.occ_blocks::switch_cpus0.data  1021.710849                       # Average occupied blocks per requestor
system.cpu0.dcache.tags.occ_percent::switch_cpus0.data     0.997765                       # Average percentage of cache occupancy
system.cpu0.dcache.tags.occ_percent::total     0.997765                       # Average percentage of cache occupancy
system.cpu0.dcache.tags.occ_task_id_blocks::1024          880                       # Occupied blocks per task id
system.cpu0.dcache.tags.age_task_id_blocks_1024::2          880                       # Occupied blocks per task id
system.cpu0.dcache.tags.occ_task_id_percent::1024     0.859375                       # Percentage of cache occupancy per task id
system.cpu0.dcache.tags.tag_accesses        354927272                       # Number of tag accesses
system.cpu0.dcache.tags.data_accesses       354927272                       # Number of data accesses
system.cpu0.dcache.pwrStateResidencyTicks::UNDEFINED 3741057889500                       # Cumulative time (in ticks) in various power states
system.cpu0.dcache.ReadReq_hits::switch_cpus0.data     97394734                       # number of ReadReq hits
system.cpu0.dcache.ReadReq_hits::total       97394734                       # number of ReadReq hits
system.cpu0.dcache.WriteReq_hits::switch_cpus0.data     46184854                       # number of WriteReq hits
system.cpu0.dcache.WriteReq_hits::total      46184854                       # number of WriteReq hits
system.cpu0.dcache.SoftPFReq_hits::switch_cpus0.data        35103                       # number of SoftPFReq hits
system.cpu0.dcache.SoftPFReq_hits::total        35103                       # number of SoftPFReq hits
system.cpu0.dcache.LoadLockedReq_hits::switch_cpus0.data       228185                       # number of LoadLockedReq hits
system.cpu0.dcache.LoadLockedReq_hits::total       228185                       # number of LoadLockedReq hits
system.cpu0.dcache.StoreCondReq_hits::switch_cpus0.data       226957                       # number of StoreCondReq hits
system.cpu0.dcache.StoreCondReq_hits::total       226957                       # number of StoreCondReq hits
system.cpu0.dcache.demand_hits::switch_cpus0.data    143579588                       # number of demand (read+write) hits
system.cpu0.dcache.demand_hits::total       143579588                       # number of demand (read+write) hits
system.cpu0.dcache.overall_hits::switch_cpus0.data    143614691                       # number of overall hits
system.cpu0.dcache.overall_hits::total      143614691                       # number of overall hits
system.cpu0.dcache.ReadReq_misses::switch_cpus0.data     26064520                       # number of ReadReq misses
system.cpu0.dcache.ReadReq_misses::total     26064520                       # number of ReadReq misses
system.cpu0.dcache.WriteReq_misses::switch_cpus0.data      1200182                       # number of WriteReq misses
system.cpu0.dcache.WriteReq_misses::total      1200182                       # number of WriteReq misses
system.cpu0.dcache.SoftPFReq_misses::switch_cpus0.data        46801                       # number of SoftPFReq misses
system.cpu0.dcache.SoftPFReq_misses::total        46801                       # number of SoftPFReq misses
system.cpu0.dcache.LoadLockedReq_misses::switch_cpus0.data         4035                       # number of LoadLockedReq misses
system.cpu0.dcache.LoadLockedReq_misses::total         4035                       # number of LoadLockedReq misses
system.cpu0.dcache.StoreCondReq_misses::switch_cpus0.data         4369                       # number of StoreCondReq misses
system.cpu0.dcache.StoreCondReq_misses::total         4369                       # number of StoreCondReq misses
system.cpu0.dcache.demand_misses::switch_cpus0.data     27264702                       # number of demand (read+write) misses
system.cpu0.dcache.demand_misses::total      27264702                       # number of demand (read+write) misses
system.cpu0.dcache.overall_misses::switch_cpus0.data     27311503                       # number of overall misses
system.cpu0.dcache.overall_misses::total     27311503                       # number of overall misses
system.cpu0.dcache.ReadReq_miss_latency::switch_cpus0.data 1348725054000                       # number of ReadReq miss cycles
system.cpu0.dcache.ReadReq_miss_latency::total 1348725054000                       # number of ReadReq miss cycles
system.cpu0.dcache.WriteReq_miss_latency::switch_cpus0.data  28632818252                       # number of WriteReq miss cycles
system.cpu0.dcache.WriteReq_miss_latency::total  28632818252                       # number of WriteReq miss cycles
system.cpu0.dcache.LoadLockedReq_miss_latency::switch_cpus0.data    135067500                       # number of LoadLockedReq miss cycles
system.cpu0.dcache.LoadLockedReq_miss_latency::total    135067500                       # number of LoadLockedReq miss cycles
system.cpu0.dcache.StoreCondReq_miss_latency::switch_cpus0.data     27964500                       # number of StoreCondReq miss cycles
system.cpu0.dcache.StoreCondReq_miss_latency::total     27964500                       # number of StoreCondReq miss cycles
system.cpu0.dcache.StoreCondFailReq_miss_latency::switch_cpus0.data        52500                       # number of StoreCondFailReq miss cycles
system.cpu0.dcache.StoreCondFailReq_miss_latency::total        52500                       # number of StoreCondFailReq miss cycles
system.cpu0.dcache.demand_miss_latency::switch_cpus0.data 1377357872252                       # number of demand (read+write) miss cycles
system.cpu0.dcache.demand_miss_latency::total 1377357872252                       # number of demand (read+write) miss cycles
system.cpu0.dcache.overall_miss_latency::switch_cpus0.data 1377357872252                       # number of overall miss cycles
system.cpu0.dcache.overall_miss_latency::total 1377357872252                       # number of overall miss cycles
system.cpu0.dcache.ReadReq_accesses::switch_cpus0.data    123459254                       # number of ReadReq accesses(hits+misses)
system.cpu0.dcache.ReadReq_accesses::total    123459254                       # number of ReadReq accesses(hits+misses)
system.cpu0.dcache.WriteReq_accesses::switch_cpus0.data     47385036                       # number of WriteReq accesses(hits+misses)
system.cpu0.dcache.WriteReq_accesses::total     47385036                       # number of WriteReq accesses(hits+misses)
system.cpu0.dcache.SoftPFReq_accesses::switch_cpus0.data        81904                       # number of SoftPFReq accesses(hits+misses)
system.cpu0.dcache.SoftPFReq_accesses::total        81904                       # number of SoftPFReq accesses(hits+misses)
system.cpu0.dcache.LoadLockedReq_accesses::switch_cpus0.data       232220                       # number of LoadLockedReq accesses(hits+misses)
system.cpu0.dcache.LoadLockedReq_accesses::total       232220                       # number of LoadLockedReq accesses(hits+misses)
system.cpu0.dcache.StoreCondReq_accesses::switch_cpus0.data       231326                       # number of StoreCondReq accesses(hits+misses)
system.cpu0.dcache.StoreCondReq_accesses::total       231326                       # number of StoreCondReq accesses(hits+misses)
system.cpu0.dcache.demand_accesses::switch_cpus0.data    170844290                       # number of demand (read+write) accesses
system.cpu0.dcache.demand_accesses::total    170844290                       # number of demand (read+write) accesses
system.cpu0.dcache.overall_accesses::switch_cpus0.data    170926194                       # number of overall (read+write) accesses
system.cpu0.dcache.overall_accesses::total    170926194                       # number of overall (read+write) accesses
system.cpu0.dcache.ReadReq_miss_rate::switch_cpus0.data     0.211118                       # miss rate for ReadReq accesses
system.cpu0.dcache.ReadReq_miss_rate::total     0.211118                       # miss rate for ReadReq accesses
system.cpu0.dcache.WriteReq_miss_rate::switch_cpus0.data     0.025328                       # miss rate for WriteReq accesses
system.cpu0.dcache.WriteReq_miss_rate::total     0.025328                       # miss rate for WriteReq accesses
system.cpu0.dcache.SoftPFReq_miss_rate::switch_cpus0.data     0.571413                       # miss rate for SoftPFReq accesses
system.cpu0.dcache.SoftPFReq_miss_rate::total     0.571413                       # miss rate for SoftPFReq accesses
system.cpu0.dcache.LoadLockedReq_miss_rate::switch_cpus0.data     0.017376                       # miss rate for LoadLockedReq accesses
system.cpu0.dcache.LoadLockedReq_miss_rate::total     0.017376                       # miss rate for LoadLockedReq accesses
system.cpu0.dcache.StoreCondReq_miss_rate::switch_cpus0.data     0.018887                       # miss rate for StoreCondReq accesses
system.cpu0.dcache.StoreCondReq_miss_rate::total     0.018887                       # miss rate for StoreCondReq accesses
system.cpu0.dcache.demand_miss_rate::switch_cpus0.data     0.159588                       # miss rate for demand accesses
system.cpu0.dcache.demand_miss_rate::total     0.159588                       # miss rate for demand accesses
system.cpu0.dcache.overall_miss_rate::switch_cpus0.data     0.159785                       # miss rate for overall accesses
system.cpu0.dcache.overall_miss_rate::total     0.159785                       # miss rate for overall accesses
system.cpu0.dcache.ReadReq_avg_miss_latency::switch_cpus0.data 51745.631763                       # average ReadReq miss latency
system.cpu0.dcache.ReadReq_avg_miss_latency::total 51745.631763                       # average ReadReq miss latency
system.cpu0.dcache.WriteReq_avg_miss_latency::switch_cpus0.data 23857.063555                       # average WriteReq miss latency
system.cpu0.dcache.WriteReq_avg_miss_latency::total 23857.063555                       # average WriteReq miss latency
system.cpu0.dcache.LoadLockedReq_avg_miss_latency::switch_cpus0.data 33473.977695                       # average LoadLockedReq miss latency
system.cpu0.dcache.LoadLockedReq_avg_miss_latency::total 33473.977695                       # average LoadLockedReq miss latency
system.cpu0.dcache.StoreCondReq_avg_miss_latency::switch_cpus0.data  6400.663767                       # average StoreCondReq miss latency
system.cpu0.dcache.StoreCondReq_avg_miss_latency::total  6400.663767                       # average StoreCondReq miss latency
system.cpu0.dcache.StoreCondFailReq_avg_miss_latency::switch_cpus0.data          inf                       # average StoreCondFailReq miss latency
system.cpu0.dcache.StoreCondFailReq_avg_miss_latency::total          inf                       # average StoreCondFailReq miss latency
system.cpu0.dcache.demand_avg_miss_latency::switch_cpus0.data 50517.987406                       # average overall miss latency
system.cpu0.dcache.demand_avg_miss_latency::total 50517.987406                       # average overall miss latency
system.cpu0.dcache.overall_avg_miss_latency::switch_cpus0.data 50431.419767                       # average overall miss latency
system.cpu0.dcache.overall_avg_miss_latency::total 50431.419767                       # average overall miss latency
system.cpu0.dcache.blocked_cycles::no_mshrs      1103710                       # number of cycles access was blocked
system.cpu0.dcache.blocked_cycles::no_targets     34654974                       # number of cycles access was blocked
system.cpu0.dcache.blocked::no_mshrs            22421                       # number of cycles access was blocked
system.cpu0.dcache.blocked::no_targets         342406                       # number of cycles access was blocked
system.cpu0.dcache.avg_blocked_cycles::no_mshrs    49.226618                       # average number of cycles each access was blocked
system.cpu0.dcache.avg_blocked_cycles::no_targets   101.210183                       # average number of cycles each access was blocked
system.cpu0.dcache.writebacks::writebacks     12137401                       # number of writebacks
system.cpu0.dcache.writebacks::total         12137401                       # number of writebacks
system.cpu0.dcache.ReadReq_mshr_hits::switch_cpus0.data     14241515                       # number of ReadReq MSHR hits
system.cpu0.dcache.ReadReq_mshr_hits::total     14241515                       # number of ReadReq MSHR hits
[...]
system.switch_cpus3.commit.op_class_0::SimdFloatCmp            5      0.00%     64.72% # Class of committed instruction
system.switch_cpus3.commit.op_class_0::SimdFloatCvt            4      0.00%     64.72% # Class of committed instruction
system.switch_cpus3.commit.op_class_0::SimdFloatDiv            0      0.00%     64.72% # Class of committed instruction
system.switch_cpus3.commit.op_class_0::SimdFloatMisc          931      0.00%     64.72% # Class of committed instruction
system.switch_cpus3.commit.op_class_0::SimdFloatMult            2      0.00%     64.72% # Class of committed instruction
system.switch_cpus3.commit.op_class_0::SimdFloatMultAcc            0      0.00%     64.72% # Class of committed instruction
system.switch_cpus3.commit.op_class_0::SimdFloatSqrt            0      0.00%     64.72% # Class of committed instruction
system.switch_cpus3.commit.op_class_0::MemRead    220228975     17.76%     82.48% # Class of committed instruction
system.switch_cpus3.commit.op_class_0::MemWrite    217196119     17.52%    100.00% # Class of committed instruction
system.switch_cpus3.commit.op_class_0::IprAccess            0      0.00%    100.00% # Class of committed instruction
system.switch_cpus3.commit.op_class_0::InstPrefetch            0      0.00%    100.00% # Class of committed instruction
system.switch_cpus3.commit.op_class_0::total   1239947202                       # Class of committed instruction
system.switch_cpus3.commit.bw_lim_events     28804505                       # number cycles where commit BW limit reached
system.switch_cpus3.rob.rob_reads          2204908433                       # The number of ROB reads
system.switch_cpus3.rob.rob_writes         2713973307                       # The number of ROB writes
system.switch_cpus3.timesIdled                 721603                       # Number of times that the entire CPU went into an idle state and unscheduled itself
system.switch_cpus3.idleCycles               92043214                       # Total number of cycles that the CPU has spent unscheduled due to idling
system.switch_cpus3.quiesceCycles             9181952                       # Total number of cycles that CPU has spent quiesced or waiting for an interrupt
system.switch_cpus3.committedInsts          995803501                       # Number of Instructions Simulated
system.switch_cpus3.committedOps           1239922137                       # Number of Ops (including micro ops) Simulated
system.switch_cpus3.cpi                      1.004077                       # CPI: Cycles Per Instruction
system.switch_cpus3.cpi_total                1.004077                       # CPI: Total CPI of All Threads
system.switch_cpus3.ipc                      0.995939                       # IPC: Instructions Per Cycle
system.switch_cpus3.ipc_total                0.995939                       # IPC: Total IPC of All Threads
system.switch_cpus3.int_regfile_reads      1454253264                       # number of integer regfile reads
system.switch_cpus3.int_regfile_writes      749145740                       # number of integer regfile writes
system.switch_cpus3.fp_regfile_reads             4214                       # number of floating regfile reads
system.switch_cpus3.fp_regfile_writes            2206                       # number of floating regfile writes
system.switch_cpus3.cc_regfile_reads       4543922150                       # number of cc regfile reads
system.switch_cpus3.cc_regfile_writes       717525961                       # number of cc regfile writes
system.switch_cpus3.misc_regfile_reads     2295297612                       # number of misc regfile reads
system.switch_cpus3.misc_regfile_writes       4185694                       # number of misc regfile writes
system.tol2bus.snoop_filter.tot_requests     65464050                       # Total number of requests made to the snoop filter.
system.tol2bus.snoop_filter.hit_single_requests     32479440                       # Number of requests hitting in the snoop filter with a single holder of the requested data.
system.tol2bus.snoop_filter.hit_multi_requests      1697547                       # Number of requests hitting in the snoop filter with multiple (>1) holders of the requested data.
system.tol2bus.snoop_filter.tot_snoops         105355                       # Total number of snoops made to the snoop filter.
system.tol2bus.snoop_filter.hit_single_snoops        99700                       # Number of snoops hitting in the snoop filter with a single holder of the requested data.
system.tol2bus.snoop_filter.hit_multi_snoops         5655                       # Number of snoops hitting in the snoop filter with multiple (>1) holders of the requested data.
system.tol2bus.pwrStateResidencyTicks::UNDEFINED 3741057889500                       # Cumulative time (in ticks) in various power states
system.tol2bus.trans_dist::ReadReq               4485                       # Transaction distribution
system.tol2bus.trans_dist::ReadResp          25385567                       # Transaction distribution
system.tol2bus.trans_dist::WriteReq              5385                       # Transaction distribution
system.tol2bus.trans_dist::WriteResp             5385                       # Transaction distribution
system.tol2bus.trans_dist::WritebackDirty     20398816                       # Transaction distribution
system.tol2bus.trans_dist::WritebackClean     20659774                       # Transaction distribution
system.tol2bus.trans_dist::CleanEvict         3737574                       # Transaction distribution
system.tol2bus.trans_dist::HardPFReq         10022361                       # Transaction distribution
system.tol2bus.trans_dist::HardPFResp               1                       # Transaction distribution
system.tol2bus.trans_dist::UpgradeReq          132277                       # Transaction distribution
system.tol2bus.trans_dist::SCUpgradeReq         16268                       # Transaction distribution
system.tol2bus.trans_dist::UpgradeResp         148545                       # Transaction distribution
system.tol2bus.trans_dist::SCUpgradeFailReq            5                       # Transaction distribution
system.tol2bus.trans_dist::UpgradeFailResp            5                       # Transaction distribution
system.tol2bus.trans_dist::ReadExReq          7361612                       # Transaction distribution
system.tol2bus.trans_dist::ReadExResp         7361612                       # Transaction distribution
system.tol2bus.trans_dist::ReadCleanReq      12329218                       # Transaction distribution
system.tol2bus.trans_dist::ReadSharedReq     13051893                       # Transaction distribution
system.tol2bus.trans_dist::InvalidateReq         6672                       # Transaction distribution
system.tol2bus.pkt_count_system.cpu0.icache.mem_side::system.l2.cpu_side      1872442                       # Packet count per connected master and slave (bytes)
system.tol2bus.pkt_count_system.cpu0.dcache.mem_side::system.l2.cpu_side     36449923                       # Packet count per connected master and slave (bytes)
system.tol2bus.pkt_count_system.cpu0.itb_walker_cache.mem_side::system.l2.cpu_side         1727                       # Packet count per connected master and slave (bytes)
system.tol2bus.pkt_count_system.cpu0.dtb_walker_cache.mem_side::system.l2.cpu_side      4529202                       # Packet count per connected master and slave (bytes)
system.tol2bus.pkt_count_system.cpu1.icache.mem_side::system.l2.cpu_side      3482157                       # Packet count per connected master and slave (bytes)
system.tol2bus.pkt_count_system.cpu1.dcache.mem_side::system.l2.cpu_side       909447                       # Packet count per connected master and slave (bytes)
system.tol2bus.pkt_count_system.cpu1.itb_walker_cache.mem_side::system.l2.cpu_side         8671                       # Packet count per connected master and slave (bytes)
system.tol2bus.pkt_count_system.cpu1.dtb_walker_cache.mem_side::system.l2.cpu_side        26324                       # Packet count per connected master and slave (bytes)
system.tol2bus.pkt_count_system.cpu2.icache.mem_side::system.l2.cpu_side      5545723                       # Packet count per connected master and slave (bytes)
system.tol2bus.pkt_count_system.cpu2.dcache.mem_side::system.l2.cpu_side     23544827                       # Packet count per connected master and slave (bytes)
system.tol2bus.pkt_count_system.cpu2.itb_walker_cache.mem_side::system.l2.cpu_side         3853                       # Packet count per connected master and slave (bytes)
system.tol2bus.pkt_count_system.cpu2.dtb_walker_cache.mem_side::system.l2.cpu_side       167973                       # Packet count per connected master and slave (bytes)
system.tol2bus.pkt_count_system.cpu3.icache.mem_side::system.l2.cpu_side     21058946                       # Packet count per connected master and slave (bytes)
system.tol2bus.pkt_count_system.cpu3.dcache.mem_side::system.l2.cpu_side       548753                       # Packet count per connected master and slave (bytes)
system.tol2bus.pkt_count_system.cpu3.itb_walker_cache.mem_side::system.l2.cpu_side         5219                       # Packet count per connected master and slave (bytes)
system.tol2bus.pkt_count_system.cpu3.dtb_walker_cache.mem_side::system.l2.cpu_side        17046                       # Packet count per connected master and slave (bytes)
system.tol2bus.pkt_count::total              98172233                       # Packet count per connected master and slave (bytes)
system.tol2bus.pkt_size_system.cpu0.icache.mem_side::system.l2.cpu_side     79889536                       # Cumulative packet size per connected master and slave (bytes)
system.tol2bus.pkt_size_system.cpu0.dcache.mem_side::system.l2.cpu_side   1553455079                       # Cumulative packet size per connected master and slave (bytes)
system.tol2bus.pkt_size_system.cpu0.itb_walker_cache.mem_side::system.l2.cpu_side        47168                       # Cumulative packet size per connected master and slave (bytes)
system.tol2bus.pkt_size_system.cpu0.dtb_walker_cache.mem_side::system.l2.cpu_side    193142976                       # Cumulative packet size per connected master and slave (bytes)
system.tol2bus.pkt_size_system.cpu1.icache.mem_side::system.l2.cpu_side    148571648                       # Cumulative packet size per connected master and slave (bytes)
system.tol2bus.pkt_size_system.cpu1.dcache.mem_side::system.l2.cpu_side     37810988                       # Cumulative packet size per connected master and slave (bytes)
system.tol2bus.pkt_size_system.cpu1.itb_walker_cache.mem_side::system.l2.cpu_side       293632                       # Cumulative packet size per connected master and slave (bytes)
system.tol2bus.pkt_size_system.cpu1.dtb_walker_cache.mem_side::system.l2.cpu_side       995392                       # Cumulative packet size per connected master and slave (bytes)
system.tol2bus.pkt_size_system.cpu2.icache.mem_side::system.l2.cpu_side    236616960                       # Cumulative packet size per connected master and slave (bytes)
system.tol2bus.pkt_size_system.cpu2.dcache.mem_side::system.l2.cpu_side    994088280                       # Cumulative packet size per connected master and slave (bytes)
system.tol2bus.pkt_size_system.cpu2.itb_walker_cache.mem_side::system.l2.cpu_side       108608                       # Cumulative packet size per connected master and slave (bytes)
system.tol2bus.pkt_size_system.cpu2.dtb_walker_cache.mem_side::system.l2.cpu_side      2011200                       # Cumulative packet size per connected master and slave (bytes)
system.tol2bus.pkt_size_system.cpu3.icache.mem_side::system.l2.cpu_side    898514624                       # Cumulative packet size per connected master and slave (bytes)
system.tol2bus.pkt_size_system.cpu3.dcache.mem_side::system.l2.cpu_side     22518457                       # Cumulative packet size per connected master and slave (bytes)
system.tol2bus.pkt_size_system.cpu3.itb_walker_cache.mem_side::system.l2.cpu_side       157184                       # Cumulative packet size per connected master and slave (bytes)
system.tol2bus.pkt_size_system.cpu3.dtb_walker_cache.mem_side::system.l2.cpu_side       615232                       # Cumulative packet size per connected master and slave (bytes)
system.tol2bus.pkt_size::total             4168836964                       # Cumulative packet size per connected master and slave (bytes)
system.tol2bus.snoops                        22456318                       # Total snoops (count)
system.tol2bus.snoopTraffic                 554534784                       # Total snoop traffic (bytes)
system.tol2bus.snoop_fanout::samples         55157262                       # Request fanout histogram
system.tol2bus.snoop_fanout::mean            0.037223                       # Request fanout histogram
system.tol2bus.snoop_fanout::stdev           0.227076                       # Request fanout histogram
system.tol2bus.snoop_fanout::underflows             0      0.00%      0.00% # Request fanout histogram
system.tol2bus.snoop_fanout::0               53448951     96.90%     96.90% # Request fanout histogram
system.tol2bus.snoop_fanout::1                1434590      2.60%     99.50% # Request fanout histogram
system.tol2bus.snoop_fanout::2                 214011      0.39%     99.89% # Request fanout histogram
system.tol2bus.snoop_fanout::3                  53053      0.10%     99.99% # Request fanout histogram
system.tol2bus.snoop_fanout::4                   3429      0.01%     99.99% # Request fanout histogram
system.tol2bus.snoop_fanout::5                   2060      0.00%    100.00% # Request fanout histogram
system.tol2bus.snoop_fanout::6                    861      0.00%    100.00% # Request fanout histogram
system.tol2bus.snoop_fanout::7                    307      0.00%    100.00% # Request fanout histogram
system.tol2bus.snoop_fanout::8                      0      0.00%    100.00% # Request fanout histogram
system.tol2bus.snoop_fanout::9                      0      0.00%    100.00% # Request fanout histogram
system.tol2bus.snoop_fanout::10                     0      0.00%    100.00% # Request fanout histogram
system.tol2bus.snoop_fanout::11                     0      0.00%    100.00% # Request fanout histogram
system.tol2bus.snoop_fanout::12                     0      0.00%    100.00% # Request fanout histogram
system.tol2bus.snoop_fanout::13                     0      0.00%    100.00% # Request fanout histogram
system.tol2bus.snoop_fanout::14                     0      0.00%    100.00% # Request fanout histogram
system.tol2bus.snoop_fanout::15                     0      0.00%    100.00% # Request fanout histogram
system.tol2bus.snoop_fanout::16                     0      0.00%    100.00% # Request fanout histogram
system.tol2bus.snoop_fanout::overflows              0      0.00%    100.00% # Request fanout histogram
system.tol2bus.snoop_fanout::min_value              0                       # Request fanout histogram
system.tol2bus.snoop_fanout::max_value              7                       # Request fanout histogram
system.tol2bus.snoop_fanout::total           55157262                       # Request fanout histogram
system.tol2bus.reqLayer0.occupancy        65311936263                       # Layer occupancy (ticks)
system.tol2bus.reqLayer0.utilization             12.9                       # Layer utilization (%)
system.tol2bus.snoopLayer0.occupancy          1747045                       # Layer occupancy (ticks)
system.tol2bus.snoopLayer0.utilization            0.0                       # Layer utilization (%)
system.tol2bus.respLayer0.occupancy         938055874                       # Layer occupancy (ticks)
system.tol2bus.respLayer0.utilization             0.2                       # Layer utilization (%)
system.tol2bus.respLayer1.occupancy       18286699150                       # Layer occupancy (ticks)
system.tol2bus.respLayer1.utilization             3.6                       # Layer utilization (%)
system.tol2bus.respLayer2.occupancy           1489990                       # Layer occupancy (ticks)
system.tol2bus.respLayer2.utilization             0.0                       # Layer utilization (%)
system.tol2bus.respLayer3.occupancy        2268888714                       # Layer occupancy (ticks)
system.tol2bus.respLayer3.utilization             0.4                       # Layer utilization (%)
system.tol2bus.respLayer4.occupancy        1745296537                       # Layer occupancy (ticks)
system.tol2bus.respLayer4.utilization             0.3                       # Layer utilization (%)
system.tol2bus.respLayer5.occupancy         463959056                       # Layer occupancy (ticks)
system.tol2bus.respLayer5.utilization             0.1                       # Layer utilization (%)
system.tol2bus.respLayer6.occupancy           6152943                       # Layer occupancy (ticks)
system.tol2bus.respLayer6.utilization             0.0                       # Layer utilization (%)
system.tol2bus.respLayer7.occupancy          16227358                       # Layer occupancy (ticks)
system.tol2bus.respLayer7.utilization             0.0                       # Layer utilization (%)
system.tol2bus.respLayer8.occupancy        2779459774                       # Layer occupancy (ticks)
system.tol2bus.respLayer8.utilization             0.6                       # Layer utilization (%)
system.tol2bus.respLayer9.occupancy       11750044183                       # Layer occupancy (ticks)
system.tol2bus.respLayer9.utilization             2.3                       # Layer utilization (%)
system.tol2bus.respLayer10.occupancy          3240487                       # Layer occupancy (ticks)
system.tol2bus.respLayer10.utilization            0.0                       # Layer utilization (%)
system.tol2bus.respLayer11.occupancy        204952239                       # Layer occupancy (ticks)
system.tol2bus.respLayer11.utilization            0.0                       # Layer utilization (%)
system.tol2bus.respLayer12.occupancy      10541715324                       # Layer occupancy (ticks)
system.tol2bus.respLayer12.utilization            2.1                       # Layer utilization (%)
system.tol2bus.respLayer13.occupancy        282130053                       # Layer occupancy (ticks)
system.tol2bus.respLayer13.utilization            0.1                       # Layer utilization (%)
system.tol2bus.respLayer14.occupancy          4159470                       # Layer occupancy (ticks)
system.tol2bus.respLayer14.utilization            0.0                       # Layer utilization (%)
system.tol2bus.respLayer15.occupancy         11193910                       # Layer occupancy (ticks)
system.tol2bus.respLayer15.utilization            0.0                       # Layer utilization (%)
system.switch_cpus0.kern.inst.arm                   0                       # number of arm instructions executed
system.switch_cpus0.kern.inst.quiesce               0                       # number of quiesce instructions executed
system.switch_cpus1.kern.inst.arm                   0                       # number of arm instructions executed
system.switch_cpus1.kern.inst.quiesce               0                       # number of quiesce instructions executed
system.switch_cpus2.kern.inst.arm                   0                       # number of arm instructions executed
system.switch_cpus2.kern.inst.quiesce               0                       # number of quiesce instructions executed
system.switch_cpus3.kern.inst.arm                   0                       # number of arm instructions executed
system.switch_cpus3.kern.inst.quiesce               0                       # number of quiesce instructions executed

---------- End Simulation Statistics   ----------
