
---------- Begin Simulation Statistics ----------
sim_seconds                                  0.504391                       # Number of seconds simulated
sim_ticks                                504390989500                       # Number of ticks simulated
final_tick                               3740946499500                       # Number of ticks from beginning of simulation (restored from checkpoints and never reset)
sim_freq                                 1000000000000                       # Frequency of simulated ticks
host_inst_rate                                 103918                       # Simulator instruction rate (inst/s)
host_op_rate                                   123850                       # Simulator op (including micro ops) rate (op/s)
host_tick_rate                               17151619                       # Simulator tick rate (ticks/s)
host_mem_usage                                2666896                       # Number of bytes of host memory used
host_seconds                                 29407.78                       # Real time elapsed on the host
sim_insts                                  3055995899                       # Number of instructions simulated
sim_ops                                    3642154369                       # Number of ops (including micro ops) simulated
system.voltage_domain.voltage                       1                       # Voltage in Volts
system.clk_domain.clock                          1000                       # Clock period in ticks
system.mem_ctrls.pwrStateResidencyTicks::UNDEFINED 3740946499500                       # Cumulative time (in ticks) in various power states
system.mem_ctrls.bytes_read::l2.prefetcher    463607168                       # Number of bytes read from this memory
system.mem_ctrls.bytes_read::switch_cpus0.dtb.walker      5012288                       # Number of bytes read from this memory
system.mem_ctrls.bytes_read::switch_cpus0.itb.walker        26432                       # Number of bytes read from this memory
system.mem_ctrls.bytes_read::switch_cpus0.inst     10596224                       # Number of bytes read from this memory
system.mem_ctrls.bytes_read::switch_cpus0.data    243470272                       # Number of bytes read from this memory
system.mem_ctrls.bytes_read::switch_cpus1.dtb.walker       269248                       # Number of bytes read from this memory
system.mem_ctrls.bytes_read::switch_cpus1.itb.walker        86912                       # Number of bytes read from this memory
system.mem_ctrls.bytes_read::switch_cpus1.inst     17271808                       # Number of bytes read from this memory
system.mem_ctrls.bytes_read::switch_cpus1.data      6223936                       # Number of bytes read from this memory
system.mem_ctrls.bytes_read::switch_cpus2.dtb.walker       488960                       # Number of bytes read from this memory
system.mem_ctrls.bytes_read::switch_cpus2.itb.walker        24896                       # Number of bytes read from this memory
system.mem_ctrls.bytes_read::switch_cpus2.inst     25388800                       # Number of bytes read from this memory
system.mem_ctrls.bytes_read::switch_cpus2.data     51705792                       # Number of bytes read from this memory
system.mem_ctrls.bytes_read::switch_cpus3.dtb.walker       161216                       # Number of bytes read from this memory
system.mem_ctrls.bytes_read::switch_cpus3.itb.walker        46144                       # Number of bytes read from this memory
system.mem_ctrls.bytes_read::switch_cpus3.inst     36541184                       # Number of bytes read from this memory
system.mem_ctrls.bytes_read::switch_cpus3.data      4433984                       # Number of bytes read from this memory
system.mem_ctrls.bytes_read::total          865355264                       # Number of bytes read from this memory
system.mem_ctrls.bytes_inst_read::switch_cpus0.inst     10596224                       # Number of instructions bytes read from this memory
system.mem_ctrls.bytes_inst_read::switch_cpus1.inst     17271808                       # Number of instructions bytes read from this memory
system.mem_ctrls.bytes_inst_read::switch_cpus2.inst     25388800                       # Number of instructions bytes read from this memory
system.mem_ctrls.bytes_inst_read::switch_cpus3.inst     36541184                       # Number of instructions bytes read from this memory
system.mem_ctrls.bytes_inst_read::total      89798016                       # Number of instructions bytes read from this memory
system.mem_ctrls.bytes_written::writebacks    553044800                       # Number of bytes written to this memory
system.mem_ctrls.bytes_written::total       553044800                       # Number of bytes written to this memory
system.mem_ctrls.num_reads::l2.prefetcher      7243862                       # Number of read requests responded to by this memory
system.mem_ctrls.num_reads::switch_cpus0.dtb.walker        78317                       # Number of read requests responded to by this memory
system.mem_ctrls.num_reads::switch_cpus0.itb.walker          413                       # Number of read requests responded to by this memory
system.mem_ctrls.num_reads::switch_cpus0.inst       165566                       # Number of read requests responded to by this memory
system.mem_ctrls.num_reads::switch_cpus0.data      3804223                       # Number of read requests responded to by this memory
system.mem_ctrls.num_reads::switch_cpus1.dtb.walker         4207                       # Number of read requests responded to by this memory
system.mem_ctrls.num_reads::switch_cpus1.itb.walker         1358                       # Number of read requests responded to by this memory
system.mem_ctrls.num_reads::switch_cpus1.inst       269872                       # Number of read requests responded to by this memory
system.mem_ctrls.num_reads::switch_cpus1.data        97249                       # Number of read requests responded to by this memory
system.mem_ctrls.num_reads::switch_cpus2.dtb.walker         7640                       # Number of read requests responded to by this memory
system.mem_ctrls.num_reads::switch_cpus2.itb.walker          389                       # Number of read requests responded to by this memory
system.mem_ctrls.num_reads::switch_cpus2.inst       396700                       # Number of read requests responded to by this memory
system.mem_ctrls.num_reads::switch_cpus2.data       807903                       # Number of read requests responded to by this memory
system.mem_ctrls.num_reads::switch_cpus3.dtb.walker         2519                       # Number of read requests responded to by this memory
system.mem_ctrls.num_reads::switch_cpus3.itb.walker          721                       # Number of read requests responded to by this memory
system.mem_ctrls.num_reads::switch_cpus3.inst       570956                       # Number of read requests responded to by this memory
system.mem_ctrls.num_reads::switch_cpus3.data        69281                       # Number of read requests responded to by this memory
system.mem_ctrls.num_reads::total            13521176                       # Number of read requests responded to by this memory
system.mem_ctrls.num_writes::writebacks       8641325                       # Number of write requests responded to by this memory
system.mem_ctrls.num_writes::total            8641325                       # Number of write requests responded to by this memory
system.mem_ctrls.bw_read::l2.prefetcher     919142446                       # Total read bandwidth from this memory (bytes/s)
system.mem_ctrls.bw_read::switch_cpus0.dtb.walker      9937307                       # Total read bandwidth from this memory (bytes/s)
system.mem_ctrls.bw_read::switch_cpus0.itb.walker        52404                       # Total read bandwidth from this memory (bytes/s)
system.mem_ctrls.bw_read::switch_cpus0.inst     21007957                       # Total read bandwidth from this memory (bytes/s)
system.mem_ctrls.bw_read::switch_cpus0.data    482701470                       # Total read bandwidth from this memory (bytes/s)
system.mem_ctrls.bw_read::switch_cpus1.dtb.walker       533808                       # Total read bandwidth from this memory (bytes/s)
system.mem_ctrls.bw_read::switch_cpus1.itb.walker       172311                       # Total read bandwidth from this memory (bytes/s)
system.mem_ctrls.bw_read::switch_cpus1.inst     34242896                       # Total read bandwidth from this memory (bytes/s)
system.mem_ctrls.bw_read::switch_cpus1.data     12339507                       # Total read bandwidth from this memory (bytes/s)
system.mem_ctrls.bw_read::switch_cpus2.dtb.walker       969407                       # Total read bandwidth from this memory (bytes/s)
system.mem_ctrls.bw_read::switch_cpus2.itb.walker        49359                       # Total read bandwidth from this memory (bytes/s)
system.mem_ctrls.bw_read::switch_cpus2.inst     50335554                       # Total read bandwidth from this memory (bytes/s)
system.mem_ctrls.bw_read::switch_cpus2.data    102511332                       # Total read bandwidth from this memory (bytes/s)
system.mem_ctrls.bw_read::switch_cpus3.dtb.walker       319625                       # Total read bandwidth from this memory (bytes/s)
system.mem_ctrls.bw_read::switch_cpus3.itb.walker        91485                       # Total read bandwidth from this memory (bytes/s)
system.mem_ctrls.bw_read::switch_cpus3.inst     72446147                       # Total read bandwidth from this memory (bytes/s)
system.mem_ctrls.bw_read::switch_cpus3.data      8790768                       # Total read bandwidth from this memory (bytes/s)
system.mem_ctrls.bw_read::total            1715643780                       # Total read bandwidth from this memory (bytes/s)
system.mem_ctrls.bw_inst_read::switch_cpus0.inst     21007957                       # Instruction read bandwidth from this memory (bytes/s)
system.mem_ctrls.bw_inst_read::switch_cpus1.inst     34242896                       # Instruction read bandwidth from this memory (bytes/s)
system.mem_ctrls.bw_inst_read::switch_cpus2.inst     50335554                       # Instruction read bandwidth from this memory (bytes/s)
system.mem_ctrls.bw_inst_read::switch_cpus3.inst     72446147                       # Instruction read bandwidth from this memory (bytes/s)
system.mem_ctrls.bw_inst_read::total        178032554                       # Instruction read bandwidth from this memory (bytes/s)
system.mem_ctrls.bw_write::writebacks      1096460507                       # Write bandwidth from this memory (bytes/s)
system.mem_ctrls.bw_write::total           1096460507                       # Write bandwidth from this memory (bytes/s)
system.mem_ctrls.bw_total::writebacks      1096460507                       # Total bandwidth to/from this memory (bytes/s)
system.mem_ctrls.bw_total::l2.prefetcher    919142446                       # Total bandwidth to/from this memory (bytes/s)
system.mem_ctrls.bw_total::switch_cpus0.dtb.walker      9937307                       # Total bandwidth to/from this memory (bytes/s)
system.mem_ctrls.bw_total::switch_cpus0.itb.walker        52404                       # Total bandwidth to/from this memory (bytes/s)
system.mem_ctrls.bw_total::switch_cpus0.inst     21007957                       # Total bandwidth to/from this memory (bytes/s)
system.mem_ctrls.bw_total::switch_cpus0.data    482701470                       # Total bandwidth to/from this memory (bytes/s)
system.mem_ctrls.bw_total::switch_cpus1.dtb.walker       533808                       # Total bandwidth to/from this memory (bytes/s)
system.mem_ctrls.bw_total::switch_cpus1.itb.walker       172311                       # Total bandwidth to/from this memory (bytes/s)
system.mem_ctrls.bw_total::switch_cpus1.inst     34242896                       # Total bandwidth to/from this memory (bytes/s)
system.mem_ctrls.bw_total::switch_cpus1.data     12339507                       # Total bandwidth to/from this memory (bytes/s)
system.mem_ctrls.bw_total::switch_cpus2.dtb.walker       969407                       # Total bandwidth to/from this memory (bytes/s)
system.mem_ctrls.bw_total::switch_cpus2.itb.walker        49359                       # Total bandwidth to/from this memory (bytes/s)
system.mem_ctrls.bw_total::switch_cpus2.inst     50335554                       # Total bandwidth to/from this memory (bytes/s)
system.mem_ctrls.bw_total::switch_cpus2.data    102511332                       # Total bandwidth to/from this memory (bytes/s)
system.mem_ctrls.bw_total::switch_cpus3.dtb.walker       319625                       # Total bandwidth to/from this memory (bytes/s)
system.mem_ctrls.bw_total::switch_cpus3.itb.walker        91485                       # Total bandwidth to/from this memory (bytes/s)
system.mem_ctrls.bw_total::switch_cpus3.inst     72446147                       # Total bandwidth to/from this memory (bytes/s)
system.mem_ctrls.bw_total::switch_cpus3.data      8790768                       # Total bandwidth to/from this memory (bytes/s)
system.mem_ctrls.bw_total::total           2812104287                       # Total bandwidth to/from this memory (bytes/s)
system.mem_ctrls.readReqs                    13521176                       # Number of read requests accepted
system.mem_ctrls.writeReqs                    8641325                       # Number of write requests accepted
system.mem_ctrls.readBursts                  13521176                       # Number of DRAM read bursts, including those serviced by the write queue
system.mem_ctrls.writeBursts                  8641325                       # Number of DRAM write bursts, including those merged in the write queue
system.mem_ctrls.bytesReadDRAM              864964480                       # Total number of bytes read from DRAM
system.mem_ctrls.bytesReadWrQ                  390784                       # Total number of bytes read from write queue
system.mem_ctrls.bytesWritten               553042880                       # Total number of bytes written to DRAM
system.mem_ctrls.bytesReadSys               865355264                       # Total read bytes from the system interface side
system.mem_ctrls.bytesWrittenSys            553044800                       # Total written bytes from the system interface side
system.mem_ctrls.servicedByWrQ                   6106                       # Number of DRAM read bursts serviced by the write queue
system.mem_ctrls.mergedWrBursts                     3                       # Number of DRAM write bursts merged with an existing one
system.mem_ctrls.neitherReadNorWriteReqs            0                       # Number of requests that are neither read nor write
system.mem_ctrls.perBankRdBursts::0            760496                       # Per bank write bursts
system.mem_ctrls.perBankRdBursts::1            828354                       # Per bank write bursts
system.mem_ctrls.perBankRdBursts::2            846603                       # Per bank write bursts
system.mem_ctrls.perBankRdBursts::3            814330                       # Per bank write bursts
system.mem_ctrls.perBankRdBursts::4            769483                       # Per bank write bursts
system.mem_ctrls.perBankRdBursts::5            942922                       # Per bank write bursts
system.mem_ctrls.perBankRdBursts::6            906931                       # Per bank write bursts
system.mem_ctrls.perBankRdBursts::7           1026527                       # Per bank write bursts
system.mem_ctrls.perBankRdBursts::8            870418                       # Per bank write bursts
system.mem_ctrls.perBankRdBursts::9            776362                       # Per bank write bursts
system.mem_ctrls.perBankRdBursts::10           806439                       # Per bank write bursts
system.mem_ctrls.perBankRdBursts::11           835180                       # Per bank write bursts
system.mem_ctrls.perBankRdBursts::12           806764                       # Per bank write bursts
system.mem_ctrls.perBankRdBursts::13           836952                       # Per bank write bursts
system.mem_ctrls.perBankRdBursts::14           850130                       # Per bank write bursts
system.mem_ctrls.perBankRdBursts::15           837179                       # Per bank write bursts
system.mem_ctrls.perBankWrBursts::0            531031                       # Per bank write bursts
system.mem_ctrls.perBankWrBursts::1            544838                       # Per bank write bursts
system.mem_ctrls.perBankWrBursts::2            533039                       # Per bank write bursts
system.mem_ctrls.perBankWrBursts::3            558742                       # Per bank write bursts
system.mem_ctrls.perBankWrBursts::4            525500                       # Per bank write bursts
system.mem_ctrls.perBankWrBursts::5            548600                       # Per bank write bursts
system.mem_ctrls.perBankWrBursts::6            543872                       # Per bank write bursts
system.mem_ctrls.perBankWrBursts::7            562789                       # Per bank write bursts
system.mem_ctrls.perBankWrBursts::8            528736                       # Per bank write bursts
system.mem_ctrls.perBankWrBursts::9            524375                       # Per bank write bursts
system.mem_ctrls.perBankWrBursts::10           550461                       # Per bank write bursts
system.mem_ctrls.perBankWrBursts::11           535934                       # Per bank write bursts
system.mem_ctrls.perBankWrBursts::12           542189                       # Per bank write bursts
system.mem_ctrls.perBankWrBursts::13           538488                       # Per bank write bursts
system.mem_ctrls.perBankWrBursts::14           527074                       # Per bank write bursts
system.mem_ctrls.perBankWrBursts::15           545627                       # Per bank write bursts
system.mem_ctrls.numRdRetry                         0                       # Number of times read queue was full causing retry
system.mem_ctrls.numWrRetry                      1080                       # Number of times write queue was full causing retry
system.mem_ctrls.totGap                  504390993000                       # Total gap between requests
system.mem_ctrls.readPktSize::0                     0                       # Read request sizes (log2)
system.mem_ctrls.readPktSize::1                     0                       # Read request sizes (log2)
system.mem_ctrls.readPktSize::2                     0                       # Read request sizes (log2)
system.mem_ctrls.readPktSize::3                     0                       # Read request sizes (log2)
system.mem_ctrls.readPktSize::4                     0                       # Read request sizes (log2)
system.mem_ctrls.readPktSize::5                     0                       # Read request sizes (log2)
system.mem_ctrls.readPktSize::6              13521176                       # Read request sizes (log2)
system.mem_ctrls.writePktSize::0                    0                       # Write request sizes (log2)
system.mem_ctrls.writePktSize::1                    0                       # Write request sizes (log2)
system.mem_ctrls.writePktSize::2                    0                       # Write request sizes (log2)
system.mem_ctrls.writePktSize::3                    0                       # Write request sizes (log2)
system.mem_ctrls.writePktSize::4                    0                       # Write request sizes (log2)
system.mem_ctrls.writePktSize::5                    0                       # Write request sizes (log2)
system.mem_ctrls.writePktSize::6              8641325                       # Write request sizes (log2)
system.mem_ctrls.rdQLenPdf::0                 2811837                       # What read queue length does an incoming req see
system.mem_ctrls.rdQLenPdf::1                 3374790                       # What read queue length does an incoming req see
system.mem_ctrls.rdQLenPdf::2                 1712224                       # What read queue length does an incoming req see
system.mem_ctrls.rdQLenPdf::3                 1243641                       # What read queue length does an incoming req see
system.mem_ctrls.rdQLenPdf::4                 1006335                       # What read queue length does an incoming req see
system.mem_ctrls.rdQLenPdf::5                  800520                       # What read queue length does an incoming req see
system.mem_ctrls.rdQLenPdf::6                  656745                       # What read queue length does an incoming req see
system.mem_ctrls.rdQLenPdf::7                  597514                       # What read queue length does an incoming req see
system.mem_ctrls.rdQLenPdf::8                  523200                       # What read queue length does an incoming req see
system.mem_ctrls.rdQLenPdf::9                  390541                       # What read queue length does an incoming req see
system.mem_ctrls.rdQLenPdf::10                 231271                       # What read queue length does an incoming req see
system.mem_ctrls.rdQLenPdf::11                 101048                       # What read queue length does an incoming req see
system.mem_ctrls.rdQLenPdf::12                  39417                       # What read queue length does an incoming req see
system.mem_ctrls.rdQLenPdf::13                  20531                       # What read queue length does an incoming req see
system.mem_ctrls.rdQLenPdf::14                   4376                       # What read queue length does an incoming req see
system.mem_ctrls.rdQLenPdf::15                   1080                       # What read queue length does an incoming req see
system.mem_ctrls.rdQLenPdf::16                      0                       # What read queue length does an incoming req see
system.mem_ctrls.rdQLenPdf::17                      0                       # What read queue length does an incoming req see
system.mem_ctrls.rdQLenPdf::18                      0                       # What read queue length does an incoming req see
system.mem_ctrls.rdQLenPdf::19                      0                       # What read queue length does an incoming req see
system.mem_ctrls.rdQLenPdf::20                      0                       # What read queue length does an incoming req see
system.mem_ctrls.rdQLenPdf::21                      0                       # What read queue length does an incoming req see
system.mem_ctrls.rdQLenPdf::22                      0                       # What read queue length does an incoming req see
system.mem_ctrls.rdQLenPdf::23                      0                       # What read queue length does an incoming req see
system.mem_ctrls.rdQLenPdf::24                      0                       # What read queue length does an incoming req see
system.mem_ctrls.rdQLenPdf::25                      0                       # What read queue length does an incoming req see
system.mem_ctrls.rdQLenPdf::26                      0                       # What read queue length does an incoming req see
system.mem_ctrls.rdQLenPdf::27                      0                       # What read queue length does an incoming req see
system.mem_ctrls.rdQLenPdf::28                      0                       # What read queue length does an incoming req see
system.mem_ctrls.rdQLenPdf::29                      0                       # What read queue length does an incoming req see
system.mem_ctrls.rdQLenPdf::30                      0                       # What read queue length does an incoming req see
system.mem_ctrls.rdQLenPdf::31                      0                       # What read queue length does an incoming req see
system.mem_ctrls.wrQLenPdf::0                       1                       # What write queue length does an incoming req see
system.mem_ctrls.wrQLenPdf::1                       1                       # What write queue length does an incoming req see
system.mem_ctrls.wrQLenPdf::2                       1                       # What write queue length does an incoming req see
system.mem_ctrls.wrQLenPdf::3                       1                       # What write queue length does an incoming req see
system.mem_ctrls.wrQLenPdf::4                       1                       # What write queue length does an incoming req see
system.mem_ctrls.wrQLenPdf::5                       1                       # What write queue length does an incoming req see
system.mem_ctrls.wrQLenPdf::6                       1                       # What write queue length does an incoming req see
system.mem_ctrls.wrQLenPdf::7                       1                       # What write queue length does an incoming req see
system.mem_ctrls.wrQLenPdf::8                       1                       # What write queue length does an incoming req see
system.mem_ctrls.wrQLenPdf::9                       1                       # What write queue length does an incoming req see
system.mem_ctrls.wrQLenPdf::10                      1                       # What write queue length does an incoming req see
system.mem_ctrls.wrQLenPdf::11                      1                       # What write queue length does an incoming req see
system.mem_ctrls.wrQLenPdf::12                      1                       # What write queue length does an incoming req see
system.mem_ctrls.wrQLenPdf::13                      1                       # What write queue length does an incoming req see
system.mem_ctrls.wrQLenPdf::14                      1                       # What write queue length does an incoming req see
system.mem_ctrls.wrQLenPdf::15                  12618                       # What write queue length does an incoming req see
system.mem_ctrls.wrQLenPdf::16                  15769                       # What write queue length does an incoming req see
system.mem_ctrls.wrQLenPdf::17                  76339                       # What write queue length does an incoming req see
system.mem_ctrls.wrQLenPdf::18                 132628                       # What write queue length does an incoming req see
system.mem_ctrls.wrQLenPdf::19                 182009                       # What write queue length does an incoming req see
system.mem_ctrls.wrQLenPdf::20                 240257                       # What write queue length does an incoming req see
system.mem_ctrls.wrQLenPdf::21                 321657                       # What write queue length does an incoming req see
system.mem_ctrls.wrQLenPdf::22                 390650                       # What write queue length does an incoming req see
system.mem_ctrls.wrQLenPdf::23                 450876                       # What write queue length does an incoming req see
system.mem_ctrls.wrQLenPdf::24                 504136                       # What write queue length does an incoming req see
system.mem_ctrls.wrQLenPdf::25                 555262                       # What write queue length does an incoming req see
system.mem_ctrls.wrQLenPdf::26                 605364                       # What write queue length does an incoming req see
system.mem_ctrls.wrQLenPdf::27                 657090                       # What write queue length does an incoming req see
system.mem_ctrls.wrQLenPdf::28                 717043                       # What write queue length does an incoming req see
system.mem_ctrls.wrQLenPdf::29                 799442                       # What write queue length does an incoming req see
system.mem_ctrls.wrQLenPdf::30                 825338                       # What write queue length does an incoming req see
system.mem_ctrls.wrQLenPdf::31                 812455                       # What write queue length does an incoming req see
system.mem_ctrls.wrQLenPdf::32                 722102                       # What write queue length does an incoming req see
system.mem_ctrls.wrQLenPdf::33                 152224                       # What write queue length does an incoming req see
system.mem_ctrls.wrQLenPdf::34                  96908                       # What write queue length does an incoming req see
system.mem_ctrls.wrQLenPdf::35                  65001                       # What write queue length does an incoming req see
system.mem_ctrls.wrQLenPdf::36                  46287                       # What write queue length does an incoming req see
system.mem_ctrls.wrQLenPdf::37                  34025                       # What write queue length does an incoming req see
system.mem_ctrls.wrQLenPdf::38                  26083                       # What write queue length does an incoming req see
system.mem_ctrls.wrQLenPdf::39                  20758                       # What write queue length does an incoming req see
system.mem_ctrls.wrQLenPdf::40                  16828                       # What write queue length does an incoming req see
system.mem_ctrls.wrQLenPdf::41                  14310                       # What write queue length does an incoming req see
system.mem_ctrls.wrQLenPdf::42                  12336                       # What write queue length does an incoming req see
system.mem_ctrls.wrQLenPdf::43                  11197                       # What write queue length does an incoming req see
system.mem_ctrls.wrQLenPdf::44                  10500                       # What write queue length does an incoming req see
system.mem_ctrls.wrQLenPdf::45                   9571                       # What write queue length does an incoming req see
system.mem_ctrls.wrQLenPdf::46                   8887                       # What write queue length does an incoming req see
system.mem_ctrls.wrQLenPdf::47                   8358                       # What write queue length does an incoming req see
system.mem_ctrls.wrQLenPdf::48                   7734                       # What write queue length does an incoming req see
system.mem_ctrls.wrQLenPdf::49                   7454                       # What write queue length does an incoming req see
system.mem_ctrls.wrQLenPdf::50                   7501                       # What write queue length does an incoming req see
system.mem_ctrls.wrQLenPdf::51                   7424                       # What write queue length does an incoming req see
system.mem_ctrls.wrQLenPdf::52                   7402                       # What write queue length does an incoming req see
system.mem_ctrls.wrQLenPdf::53                   7358                       # What write queue length does an incoming req see
system.mem_ctrls.wrQLenPdf::54                   7336                       # What write queue length does an incoming req see
system.mem_ctrls.wrQLenPdf::55                   7536                       # What write queue length does an incoming req see
system.mem_ctrls.wrQLenPdf::56                   5387                       # What write queue length does an incoming req see
system.mem_ctrls.wrQLenPdf::57                   4174                       # What write queue length does an incoming req see
system.mem_ctrls.wrQLenPdf::58                   3757                       # What write queue length does an incoming req see
system.mem_ctrls.wrQLenPdf::59                   3248                       # What write queue length does an incoming req see
system.mem_ctrls.wrQLenPdf::60                   2792                       # What write queue length does an incoming req see
system.mem_ctrls.wrQLenPdf::61                   2261                       # What write queue length does an incoming req see
system.mem_ctrls.wrQLenPdf::62                   1986                       # What write queue length does an incoming req see
system.mem_ctrls.wrQLenPdf::63                   3649                       # What write queue length does an incoming req see
system.mem_ctrls.bytesPerActivate::samples     10926076                       # Bytes accessed per row activation
system.mem_ctrls.bytesPerActivate::mean    129.782018                       # Bytes accessed per row activation
system.mem_ctrls.bytesPerActivate::gmean    89.897868                       # Bytes accessed per row activation
system.mem_ctrls.bytesPerActivate::stdev   178.856344                       # Bytes accessed per row activation
system.mem_ctrls.bytesPerActivate::0-127      8133136     74.44%     74.44% # Bytes accessed per row activation
system.mem_ctrls.bytesPerActivate::128-255      1604876     14.69%     89.13% # Bytes accessed per row activation
system.mem_ctrls.bytesPerActivate::256-383       409982      3.75%     92.88% # Bytes accessed per row activation
system.mem_ctrls.bytesPerActivate::384-511       177517      1.62%     94.50% # Bytes accessed per row activation
system.mem_ctrls.bytesPerActivate::512-639       190231      1.74%     96.24% # Bytes accessed per row activation
system.mem_ctrls.bytesPerActivate::640-767        87613      0.80%     97.05% # Bytes accessed per row activation
system.mem_ctrls.bytesPerActivate::768-895        54340      0.50%     97.54% # Bytes accessed per row activation
system.mem_ctrls.bytesPerActivate::896-1023        63637      0.58%     98.13% # Bytes accessed per row activation
system.mem_ctrls.bytesPerActivate::1024-1151       204744      1.87%    100.00% # Bytes accessed per row activation
system.mem_ctrls.bytesPerActivate::total     10926076                       # Bytes accessed per row activation
system.mem_ctrls.rdPerTurnAround::samples       535904                       # Reads before turning the bus around for writes
system.mem_ctrls.rdPerTurnAround::mean      25.257792                       # Reads before turning the bus around for writes
system.mem_ctrls.rdPerTurnAround::stdev     42.006190                       # Reads before turning the bus around for writes
system.mem_ctrls.rdPerTurnAround::0-1023       535896    100.00%    100.00% # Reads before turning the bus around for writes
system.mem_ctrls.rdPerTurnAround::1024-2047            6      0.00%    100.00% # Reads before turning the bus around for writes
system.mem_ctrls.rdPerTurnAround::2048-3071            1      0.00%    100.00% # Reads before turning the bus around for writes
system.mem_ctrls.rdPerTurnAround::27648-28671            1      0.00%    100.00% # Reads before turning the bus around for writes
system.mem_ctrls.rdPerTurnAround::total        535904                       # Reads before turning the bus around for writes
system.mem_ctrls.wrPerTurnAround::samples       535904                       # Writes before turning the bus around for reads
system.mem_ctrls.wrPerTurnAround::mean      16.124707                       # Writes before turning the bus around for reads
system.mem_ctrls.wrPerTurnAround::gmean     16.106330                       # Writes before turning the bus around for reads
system.mem_ctrls.wrPerTurnAround::stdev      1.013455                       # Writes before turning the bus around for reads
system.mem_ctrls.wrPerTurnAround::16-19        530342     98.96%     98.96% # Writes before turning the bus around for reads
system.mem_ctrls.wrPerTurnAround::20-23          4521      0.84%     99.81% # Writes before turning the bus around for reads
system.mem_ctrls.wrPerTurnAround::24-27           647      0.12%     99.93% # Writes before turning the bus around for reads
system.mem_ctrls.wrPerTurnAround::28-31           167      0.03%     99.96% # Writes before turning the bus around for reads
system.mem_ctrls.wrPerTurnAround::32-35            71      0.01%     99.97% # Writes before turning the bus around for reads
system.mem_ctrls.wrPerTurnAround::36-39            38      0.01%     99.98% # Writes before turning the bus around for reads
system.mem_ctrls.wrPerTurnAround::40-43            27      0.01%     99.98% # Writes before turning the bus around for reads
system.mem_ctrls.wrPerTurnAround::44-47            11      0.00%     99.99% # Writes before turning the bus around for reads
system.mem_ctrls.wrPerTurnAround::48-51            15      0.00%     99.99% # Writes before turning the bus around for reads
system.mem_ctrls.wrPerTurnAround::52-55             8      0.00%     99.99% # Writes before turning the bus around for reads
system.mem_ctrls.wrPerTurnAround::56-59             7      0.00%     99.99% # Writes before turning the bus around for reads
system.mem_ctrls.wrPerTurnAround::60-63            11      0.00%     99.99% # Writes before turning the bus around for reads
system.mem_ctrls.wrPerTurnAround::64-67            10      0.00%     99.99% # Writes before turning the bus around for reads
system.mem_ctrls.wrPerTurnAround::68-71             8      0.00%    100.00% # Writes before turning the bus around for reads
system.mem_ctrls.wrPerTurnAround::72-75             3      0.00%    100.00% # Writes before turning the bus around for reads
system.mem_ctrls.wrPerTurnAround::76-79             3      0.00%    100.00% # Writes before turning the bus around for reads
system.mem_ctrls.wrPerTurnAround::80-83             5      0.00%    100.00% # Writes before turning the bus around for reads
system.mem_ctrls.wrPerTurnAround::84-87             1      0.00%    100.00% # Writes before turning the bus around for reads
system.mem_ctrls.wrPerTurnAround::88-91             3      0.00%    100.00% # Writes before turning the bus around for reads
system.mem_ctrls.wrPerTurnAround::96-99             2      0.00%    100.00% # Writes before turning the bus around for reads
system.mem_ctrls.wrPerTurnAround::112-115            1      0.00%    100.00% # Writes before turning the bus around for reads
system.mem_ctrls.wrPerTurnAround::116-119            2      0.00%    100.00% # Writes before turning the bus around for reads
system.mem_ctrls.wrPerTurnAround::128-131            1      0.00%    100.00% # Writes before turning the bus around for reads
system.mem_ctrls.wrPerTurnAround::total        535904                       # Writes before turning the bus around for reads
system.mem_ctrls.totQLat                 1124434683295                       # Total ticks spent queuing
system.mem_ctrls.totMemAccLat            1377842245795                       # Total ticks spent from burst creation until serviced by the DRAM
system.mem_ctrls.totBusLat                67575350000                       # Total ticks spent in databus transfers
system.mem_ctrls.avgQLat                     83198.58                       # Average queueing delay per DRAM burst
system.mem_ctrls.avgBusLat                    5000.00                       # Average bus latency per DRAM burst
system.mem_ctrls.avgMemAccLat               101948.58                       # Average memory access latency per DRAM burst
system.mem_ctrls.avgRdBW                      1714.87                       # Average DRAM read bandwidth in MiByte/s
system.mem_ctrls.avgWrBW                      1096.46                       # Average achieved write bandwidth in MiByte/s
system.mem_ctrls.avgRdBWSys                   1715.64                       # Average system read bandwidth in MiByte/s
system.mem_ctrls.avgWrBWSys                   1096.46                       # Average system write bandwidth in MiByte/s
system.mem_ctrls.peakBW                      12800.00                       # Theoretical peak bandwidth in MiByte/s
system.mem_ctrls.busUtil                        21.96                       # Data bus utilization in percentage
system.mem_ctrls.busUtilRead                    13.40                       # Data bus utilization in percentage for reads
system.mem_ctrls.busUtilWrite                    8.57                       # Data bus utilization in percentage for writes
system.mem_ctrls.avgRdQLen                       3.75                       # Average read queue length when enqueuing
system.mem_ctrls.avgWrQLen                      27.45                       # Average write queue length when enqueuing
system.mem_ctrls.readRowHits                  8165656                       # Number of row buffer hits during reads
system.mem_ctrls.writeRowHits                 3064635                       # Number of row buffer hits during writes
system.mem_ctrls.readRowHitRate                 60.42                       # Row buffer hit rate for reads
system.mem_ctrls.writeRowHitRate                35.46                       # Row buffer hit rate for writes
system.mem_ctrls.avgGap                      22758.76                       # Average gap between requests
system.mem_ctrls.pageHitRate                    50.69                       # Row buffer hit rate, read and write combined
system.mem_ctrls_0.actEnergy              42487184880                       # Energy for activate commands per rank (pJ)
system.mem_ctrls_0.preEnergy              23182491750                       # Energy for precharge commands per rank (pJ)
system.mem_ctrls_0.readEnergy             53866589400                       # Energy for read commands per rank (pJ)
system.mem_ctrls_0.writeEnergy            28177586640                       # Energy for write commands per rank (pJ)
system.mem_ctrls_0.refreshEnergy          32990287200                       # Energy for refresh commands per rank (pJ)
system.mem_ctrls_0.actBackEnergy         339888963105                       # Energy for active background per rank (pJ)
system.mem_ctrls_0.preBackEnergy           4908377250                       # Energy for precharge background per rank (pJ)
system.mem_ctrls_0.totalEnergy           525501480225                       # Total energy per rank (pJ)
system.mem_ctrls_0.averagePower           1040.402677                       # Core power per rank (mW)
system.mem_ctrls_0.memoryStateTime::IDLE   5960263016                       # Time in different power states
system.mem_ctrls_0.memoryStateTime::REF   16842800000                       # Time in different power states
system.mem_ctrls_0.memoryStateTime::PRE_PDN            0                       # Time in different power states
system.mem_ctrls_0.memoryStateTime::ACT  481590147484                       # Time in different power states
system.mem_ctrls_0.memoryStateTime::ACT_PDN            0                       # Time in different power states
system.mem_ctrls_1.actEnergy              40167867600                       # Energy for activate commands per rank (pJ)
system.mem_ctrls_1.preEnergy              21916991250                       # Energy for precharge commands per rank (pJ)
system.mem_ctrls_1.readEnergy             51711543000                       # Energy for read commands per rank (pJ)
system.mem_ctrls_1.writeEnergy            27817797600                       # Energy for write commands per rank (pJ)
system.mem_ctrls_1.refreshEnergy          32990287200                       # Energy for refresh commands per rank (pJ)
system.mem_ctrls_1.actBackEnergy         338874771510                       # Energy for active background per rank (pJ)
system.mem_ctrls_1.preBackEnergy           5798007000                       # Energy for precharge background per rank (pJ)
system.mem_ctrls_1.totalEnergy           519277265160                       # Total energy per rank (pJ)
system.mem_ctrls_1.averagePower           1028.079841                       # Core power per rank (mW)
system.mem_ctrls_1.memoryStateTime::IDLE   7393508723                       # Time in different power states
system.mem_ctrls_1.memoryStateTime::REF   16842800000                       # Time in different power states
system.mem_ctrls_1.memoryStateTime::PRE_PDN            0                       # Time in different power states
system.mem_ctrls_1.memoryStateTime::ACT  480156981027                       # Time in different power states
system.mem_ctrls_1.memoryStateTime::ACT_PDN            0                       # Time in different power states
system.realview.nvmem.pwrStateResidencyTicks::UNDEFINED 3740946499500                       # Cumulative time (in ticks) in various power states
system.realview.vram.pwrStateResidencyTicks::UNDEFINED 3740946499500                       # Cumulative time (in ticks) in various power states
system.pwrStateResidencyTicks::UNDEFINED 3740946499500                       # Cumulative time (in ticks) in various power states
system.bridge.pwrStateResidencyTicks::UNDEFINED 3740946499500                       # Cumulative time (in ticks) in various power states
system.cf0.dma_read_full_pages                      0                       # Number of full page size DMA reads (not PRD).
system.cf0.dma_read_bytes                           0                       # Number of bytes transfered via DMA reads (not PRD).
system.cf0.dma_read_txs                             0                       # Number of DMA read transactions (not PRD).
system.cf0.dma_write_full_pages                  2334                       # Number of full page size DMA writes.
system.cf0.dma_write_bytes                    9636864                       # Number of bytes transfered via DMA writes.
system.cf0.dma_write_txs                         2404                       # Number of DMA write transactions.
system.cpu_voltage_domain.voltage                   1                       # Voltage in Volts
system.cpu_clk_domain.clock                       500                       # Clock period in ticks
system.cpu0.dstage2_mmu.stage2_tlb.walker.pwrStateResidencyTicks::UNDEFINED 3740946499500                       # Cumulative time (in ticks) in various power states
system.cpu0.dstage2_mmu.stage2_tlb.walker.walks            0                       # Table walker walks requested
system.cpu0.dstage2_mmu.stage2_tlb.walker.walkRequestOrigin_Requested::Data            0                       # Table walker requests started/completed, data/inst
system.cpu0.dstage2_mmu.stage2_tlb.walker.walkRequestOrigin_Requested::Inst            0                       # Table walker requests started/completed, data/inst
system.cpu0.dstage2_mmu.stage2_tlb.walker.walkRequestOrigin_Requested::total            0                       # Table walker requests started/completed, data/inst
system.cpu0.dstage2_mmu.stage2_tlb.walker.walkRequestOrigin_Completed::Data            0                       # Table walker requests started/completed, data/inst
system.cpu0.dstage2_mmu.stage2_tlb.walker.walkRequestOrigin_Completed::Inst            0                       # Table walker requests started/completed, data/inst
system.cpu0.dstage2_mmu.stage2_tlb.walker.walkRequestOrigin_Completed::total            0                       # Table walker requests started/completed, data/inst
system.cpu0.dstage2_mmu.stage2_tlb.walker.walkRequestOrigin::total            0                       # Table walker requests started/completed, data/inst
system.cpu0.dstage2_mmu.stage2_tlb.inst_hits            0                       # ITB inst hits
system.cpu0.dstage2_mmu.stage2_tlb.inst_misses            0                       # ITB inst misses
system.cpu0.dstage2_mmu.stage2_tlb.read_hits            0                       # DTB read hits
system.cpu0.dstage2_mmu.stage2_tlb.read_misses            0                       # DTB read misses
system.cpu0.dstage2_mmu.stage2_tlb.write_hits            0                       # DTB write hits
system.cpu0.dstage2_mmu.stage2_tlb.write_misses            0                       # DTB write misses
system.cpu0.dstage2_mmu.stage2_tlb.flush_tlb            0                       # Number of times complete TLB was flushed
system.cpu0.dstage2_mmu.stage2_tlb.flush_tlb_mva            0                       # Number of times TLB was flushed by MVA
system.cpu0.dstage2_mmu.stage2_tlb.flush_tlb_mva_asid            0                       # Number of times TLB was flushed by MVA & ASID
system.cpu0.dstage2_mmu.stage2_tlb.flush_tlb_asid            0                       # Number of times TLB was flushed by ASID
system.cpu0.dstage2_mmu.stage2_tlb.flush_entries            0                       # Number of entries that have been flushed from TLB
system.cpu0.dstage2_mmu.stage2_tlb.align_faults            0                       # Number of TLB faults due to alignment restrictions
system.cpu0.dstage2_mmu.stage2_tlb.prefetch_faults            0                       # Number of TLB faults due to prefetch
system.cpu0.dstage2_mmu.stage2_tlb.domain_faults            0                       # Number of TLB faults due to domain restrictions
system.cpu0.dstage2_mmu.stage2_tlb.perms_faults            0                       # Number of TLB faults due to permissions restrictions
system.cpu0.dstage2_mmu.stage2_tlb.read_accesses            0                       # DTB read accesses
system.cpu0.dstage2_mmu.stage2_tlb.write_accesses            0                       # DTB write accesses
system.cpu0.dstage2_mmu.stage2_tlb.inst_accesses            0                       # ITB inst accesses
system.cpu0.dstage2_mmu.stage2_tlb.hits             0                       # DTB hits
system.cpu0.dstage2_mmu.stage2_tlb.misses            0                       # DTB misses
system.cpu0.dstage2_mmu.stage2_tlb.accesses            0                       # DTB accesses
system.cpu0.dtb.walker.pwrStateResidencyTicks::UNDEFINED 3740946499500                       # Cumulative time (in ticks) in various power states
system.cpu0.dtb.walker.walks                        0                       # Table walker walks requested
system.cpu0.dtb.walker.walkRequestOrigin_Requested::Data            0                       # Table walker requests started/completed, data/inst
system.cpu0.dtb.walker.walkRequestOrigin_Requested::Inst            0                       # Table walker requests started/completed, data/inst
system.cpu0.dtb.walker.walkRequestOrigin_Requested::total            0                       # Table walker requests started/completed, data/inst
system.cpu0.dtb.walker.walkRequestOrigin_Completed::Data            0                       # Table walker requests started/completed, data/inst
system.cpu0.dtb.walker.walkRequestOrigin_Completed::Inst            0                       # Table walker requests started/completed, data/inst
system.cpu0.dtb.walker.walkRequestOrigin_Completed::total            0                       # Table walker requests started/completed, data/inst
system.cpu0.dtb.walker.walkRequestOrigin::total            0                       # Table walker requests started/completed, data/inst
system.cpu0.dtb.inst_hits                           0                       # ITB inst hits
system.cpu0.dtb.inst_misses                         0                       # ITB inst misses
system.cpu0.dtb.read_hits                           0                       # DTB read hits
system.cpu0.dtb.read_misses                         0                       # DTB read misses
system.cpu0.dtb.write_hits                          0                       # DTB write hits
system.cpu0.dtb.write_misses                        0                       # DTB write misses
system.cpu0.dtb.flush_tlb                           0                       # Number of times complete TLB was flushed
system.cpu0.dtb.flush_tlb_mva                       0                       # Number of times TLB was flushed by MVA
system.cpu0.dtb.flush_tlb_mva_asid                  0                       # Number of times TLB was flushed by MVA & ASID
system.cpu0.dtb.flush_tlb_asid                      0                       # Number of times TLB was flushed by ASID
system.cpu0.dtb.flush_entries                       0                       # Number of entries that have been flushed from TLB
system.cpu0.dtb.align_faults                        0                       # Number of TLB faults due to alignment restrictions
system.cpu0.dtb.prefetch_faults                     0                       # Number of TLB faults due to prefetch
system.cpu0.dtb.domain_faults                       0                       # Number of TLB faults due to domain restrictions
system.cpu0.dtb.perms_faults                        0                       # Number of TLB faults due to permissions restrictions
system.cpu0.dtb.read_accesses                       0                       # DTB read accesses
system.cpu0.dtb.write_accesses                      0                       # DTB write accesses
system.cpu0.dtb.inst_accesses                       0                       # ITB inst accesses
system.cpu0.dtb.hits                                0                       # DTB hits
system.cpu0.dtb.misses                              0                       # DTB misses
system.cpu0.dtb.accesses                            0                       # DTB accesses
system.cpu0.istage2_mmu.stage2_tlb.walker.pwrStateResidencyTicks::UNDEFINED 3740946499500                       # Cumulative time (in ticks) in various power states
system.cpu0.istage2_mmu.stage2_tlb.walker.walks            0                       # Table walker walks requested
system.cpu0.istage2_mmu.stage2_tlb.walker.walkRequestOrigin_Requested::Data            0                       # Table walker requests started/completed, data/inst
system.cpu0.istage2_mmu.stage2_tlb.walker.walkRequestOrigin_Requested::Inst            0                       # Table walker requests started/completed, data/inst
system.cpu0.istage2_mmu.stage2_tlb.walker.walkRequestOrigin_Requested::total            0                       # Table walker requests started/completed, data/inst
system.cpu0.istage2_mmu.stage2_tlb.walker.walkRequestOrigin_Completed::Data            0                       # Table walker requests started/completed, data/inst
system.cpu0.istage2_mmu.stage2_tlb.walker.walkRequestOrigin_Completed::Inst            0                       # Table walker requests started/completed, data/inst
system.cpu0.istage2_mmu.stage2_tlb.walker.walkRequestOrigin_Completed::total            0                       # Table walker requests started/completed, data/inst
system.cpu0.istage2_mmu.stage2_tlb.walker.walkRequestOrigin::total            0                       # Table walker requests started/completed, data/inst
system.cpu0.istage2_mmu.stage2_tlb.inst_hits            0                       # ITB inst hits
system.cpu0.istage2_mmu.stage2_tlb.inst_misses            0                       # ITB inst misses
system.cpu0.istage2_mmu.stage2_tlb.read_hits            0                       # DTB read hits
system.cpu0.istage2_mmu.stage2_tlb.read_misses            0                       # DTB read misses
system.cpu0.istage2_mmu.stage2_tlb.write_hits            0                       # DTB write hits
system.cpu0.istage2_mmu.stage2_tlb.write_misses            0                       # DTB write misses
system.cpu0.istage2_mmu.stage2_tlb.flush_tlb            0                       # Number of times complete TLB was flushed
system.cpu0.istage2_mmu.stage2_tlb.flush_tlb_mva            0                       # Number of times TLB was flushed by MVA
system.cpu0.istage2_mmu.stage2_tlb.flush_tlb_mva_asid            0                       # Number of times TLB was flushed by MVA & ASID
system.cpu0.istage2_mmu.stage2_tlb.flush_tlb_asid            0                       # Number of times TLB was flushed by ASID
system.cpu0.istage2_mmu.stage2_tlb.flush_entries            0                       # Number of entries that have been flushed from TLB
system.cpu0.istage2_mmu.stage2_tlb.align_faults            0                       # Number of TLB faults due to alignment restrictions
system.cpu0.istage2_mmu.stage2_tlb.prefetch_faults            0                       # Number of TLB faults due to prefetch
system.cpu0.istage2_mmu.stage2_tlb.domain_faults            0                       # Number of TLB faults due to domain restrictions
system.cpu0.istage2_mmu.stage2_tlb.perms_faults            0                       # Number of TLB faults due to permissions restrictions
system.cpu0.istage2_mmu.stage2_tlb.read_accesses            0                       # DTB read accesses
system.cpu0.istage2_mmu.stage2_tlb.write_accesses            0                       # DTB write accesses
system.cpu0.istage2_mmu.stage2_tlb.inst_accesses            0                       # ITB inst accesses
system.cpu0.istage2_mmu.stage2_tlb.hits             0                       # DTB hits
system.cpu0.istage2_mmu.stage2_tlb.misses            0                       # DTB misses
system.cpu0.istage2_mmu.stage2_tlb.accesses            0                       # DTB accesses
system.cpu0.itb.walker.pwrStateResidencyTicks::UNDEFINED 3740946499500                       # Cumulative time (in ticks) in various power states
system.cpu0.itb.walker.walks                        0                       # Table walker walks requested
system.cpu0.itb.walker.walkRequestOrigin_Requested::Data            0                       # Table walker requests started/completed, data/inst
system.cpu0.itb.walker.walkRequestOrigin_Requested::Inst            0                       # Table walker requests started/completed, data/inst
system.cpu0.itb.walker.walkRequestOrigin_Requested::total            0                       # Table walker requests started/completed, data/inst
system.cpu0.itb.walker.walkRequestOrigin_Completed::Data            0                       # Table walker requests started/completed, data/inst
system.cpu0.itb.walker.walkRequestOrigin_Completed::Inst            0                       # Table walker requests started/completed, data/inst
system.cpu0.itb.walker.walkRequestOrigin_Completed::total            0                       # Table walker requests started/completed, data/inst
system.cpu0.itb.walker.walkRequestOrigin::total            0                       # Table walker requests started/completed, data/inst
system.cpu0.itb.inst_hits                           0                       # ITB inst hits
system.cpu0.itb.inst_misses                         0                       # ITB inst misses
system.cpu0.itb.read_hits                           0                       # DTB read hits
system.cpu0.itb.read_misses                         0                       # DTB read misses
system.cpu0.itb.write_hits                          0                       # DTB write hits
system.cpu0.itb.write_misses                        0                       # DTB write misses
system.cpu0.itb.flush_tlb                           0                       # Number of times complete TLB was flushed
system.cpu0.itb.flush_tlb_mva                       0                       # Number of times TLB was flushed by MVA
system.cpu0.itb.flush_tlb_mva_asid                  0                       # Number of times TLB was flushed by MVA & ASID
system.cpu0.itb.flush_tlb_asid                      0                       # Number of times TLB was flushed by ASID
system.cpu0.itb.flush_entries                       0                       # Number of entries that have been flushed from TLB
system.cpu0.itb.align_faults                        0                       # Number of TLB faults due to alignment restrictions
system.cpu0.itb.prefetch_faults                     0                       # Number of TLB faults due to prefetch
system.cpu0.itb.domain_faults                       0                       # Number of TLB faults due to domain restrictions
system.cpu0.itb.perms_faults                        0                       # Number of TLB faults due to permissions restrictions
system.cpu0.itb.read_accesses                       0                       # DTB read accesses
system.cpu0.itb.write_accesses                      0                       # DTB write accesses
system.cpu0.itb.inst_accesses                       0                       # ITB inst accesses
system.cpu0.itb.hits                                0                       # DTB hits
system.cpu0.itb.misses                              0                       # DTB misses
system.cpu0.itb.accesses                            0                       # DTB accesses
system.cpu0.pwrStateResidencyTicks::ON   505099304000                       # Cumulative time (in ticks) in various power states
system.cpu0.numCycles                               0                       # number of cpu cycles simulated
system.cpu0.numWorkItemsStarted                     0                       # number of work items this cpu started
system.cpu0.numWorkItemsCompleted                   0                       # number of work items this cpu completed
system.cpu0.kern.inst.arm                           0                       # number of arm instructions executed
system.cpu0.kern.inst.quiesce                     416                       # number of quiesce instructions executed
system.cpu0.committedInsts                          0                       # Number of instructions committed
system.cpu0.committedOps                            0                       # Number of ops (including micro ops) committed
system.cpu0.num_int_alu_accesses                    0                       # Number of integer alu accesses
system.cpu0.num_fp_alu_accesses                     0                       # Number of float alu accesses
system.cpu0.num_func_calls                          0                       # number of times a function call or return occured
system.cpu0.num_conditional_control_insts            0                       # number of instructions that are conditional controls
system.cpu0.num_int_insts                           0                       # number of integer instructions
system.cpu0.num_fp_insts                            0                       # number of float instructions
system.cpu0.num_int_register_reads                  0                       # number of times the integer registers were read
system.cpu0.num_int_register_writes                 0                       # number of times the integer registers were written
system.cpu0.num_fp_register_reads                   0                       # number of times the floating registers were read
system.cpu0.num_fp_register_writes                  0                       # number of times the floating registers were written
system.cpu0.num_mem_refs                            0                       # number of memory refs
system.cpu0.num_load_insts                          0                       # Number of load instructions
system.cpu0.num_store_insts                         0                       # Number of store instructions
system.cpu0.num_idle_cycles                         0                       # Number of idle cycles
system.cpu0.num_busy_cycles                         0                       # Number of busy cycles
system.cpu0.not_idle_fraction                       0                       # Percentage of non-idle cycles
system.cpu0.idle_fraction                           1                       # Percentage of idle cycles
system.cpu0.op_class::No_OpClass                    0                       # Class of executed instruction
system.cpu0.op_class::IntAlu                        0                       # Class of executed instruction
system.cpu0.op_class::IntMult                       0                       # Class of executed instruction
system.cpu0.op_class::IntDiv                        0                       # Class of executed instruction
system.cpu0.op_class::FloatAdd                      0                       # Class of executed instruction
system.cpu0.op_class::FloatCmp                      0                       # Class of executed instruction
system.cpu0.op_class::FloatCvt                      0                       # Class of executed instruction
system.cpu0.op_class::FloatMult                     0                       # Class of executed instruction
system.cpu0.op_class::FloatDiv                      0                       # Class of executed instruction
system.cpu0.op_class::FloatSqrt                     0                       # Class of executed instruction
system.cpu0.op_class::SimdAdd                       0                       # Class of executed instruction
system.cpu0.op_class::SimdAddAcc                    0                       # Class of executed instruction
system.cpu0.op_class::SimdAlu                       0                       # Class of executed instruction
system.cpu0.op_class::SimdCmp                       0                       # Class of executed instruction
system.cpu0.op_class::SimdCvt                       0                       # Class of executed instruction
system.cpu0.op_class::SimdMisc                      0                       # Class of executed instruction
system.cpu0.op_class::SimdMult                      0                       # Class of executed instruction
system.cpu0.op_class::SimdMultAcc                   0                       # Class of executed instruction
system.cpu0.op_class::SimdShift                     0                       # Class of executed instruction
system.cpu0.op_class::SimdShiftAcc                  0                       # Class of executed instruction
system.cpu0.op_class::SimdSqrt                      0                       # Class of executed instruction
system.cpu0.op_class::SimdFloatAdd                  0                       # Class of executed instruction
system.cpu0.op_class::SimdFloatAlu                  0                       # Class of executed instruction
system.cpu0.op_class::SimdFloatCmp                  0                       # Class of executed instruction
system.cpu0.op_class::SimdFloatCvt                  0                       # Class of executed instruction
system.cpu0.op_class::SimdFloatDiv                  0                       # Class of executed instruction
system.cpu0.op_class::SimdFloatMisc                 0                       # Class of executed instruction
system.cpu0.op_class::SimdFloatMult                 0                       # Class of executed instruction
system.cpu0.op_class::SimdFloatMultAcc              0                       # Class of executed instruction
system.cpu0.op_class::SimdFloatSqrt                 0                       # Class of executed instruction
system.cpu0.op_class::MemRead                       0                       # Class of executed instruction
system.cpu0.op_class::MemWrite                      0                       # Class of executed instruction
system.cpu0.op_class::IprAccess                     0                       # Class of executed instruction
system.cpu0.op_class::InstPrefetch                  0                       # Class of executed instruction
system.cpu0.op_class::total                         0                       # Class of executed instruction
system.cpu0.dcache.tags.pwrStateResidencyTicks::UNDEFINED 3740946499500                       # Cumulative time (in ticks) in various power states
system.cpu0.dcache.tags.replacements         11925167                       # number of replacements
system.cpu0.dcache.tags.tagsinuse         1021.231482                       # Cycle average of tags in use
system.cpu0.dcache.tags.total_refs          143398006                       # Total number of references to valid blocks.
system.cpu0.dcache.tags.sampled_refs         11926147                       # Sample count of references to valid blocks.
system.cpu0.dcache.tags.avg_refs            12.023834                       # Average number of references to valid blocks.
system.cpu0.dcache.tags.warmup_cycle     3247939022500                       # Cycle when the warmup percentage was hit.
system.cpu0.dcache.tags.occ_blocks::switch_cpus0.data  1021.231482                       # Average occupied blocks per requestor
system.cpu0.dcache.tags.occ_percent::switch_cpus0.data     0.997296                       # Average percentage of cache occupancy
system.cpu0.dcache.tags.occ_percent::total     0.997296                       # Average percentage of cache occupancy
system.cpu0.dcache.tags.occ_task_id_blocks::1024          980                       # Occupied blocks per task id
system.cpu0.dcache.tags.age_task_id_blocks_1024::0           23                       # Occupied blocks per task id
system.cpu0.dcache.tags.age_task_id_blocks_1024::1          276                       # Occupied blocks per task id
system.cpu0.dcache.tags.age_task_id_blocks_1024::2          681                       # Occupied blocks per task id
system.cpu0.dcache.tags.occ_task_id_percent::1024     0.957031                       # Percentage of cache occupancy per task id
system.cpu0.dcache.tags.tag_accesses        351930324                       # Number of tag accesses
system.cpu0.dcache.tags.data_accesses       351930324                       # Number of data accesses
system.cpu0.dcache.pwrStateResidencyTicks::UNDEFINED 3740946499500                       # Cumulative time (in ticks) in various power states
system.cpu0.dcache.ReadReq_hits::switch_cpus0.data     96754208                       # number of ReadReq hits
system.cpu0.dcache.ReadReq_hits::total       96754208                       # number of ReadReq hits
system.cpu0.dcache.WriteReq_hits::switch_cpus0.data     46078615                       # number of WriteReq hits
system.cpu0.dcache.WriteReq_hits::total      46078615                       # number of WriteReq hits
system.cpu0.dcache.SoftPFReq_hits::switch_cpus0.data        40530                       # number of SoftPFReq hits
system.cpu0.dcache.SoftPFReq_hits::total        40530                       # number of SoftPFReq hits
system.cpu0.dcache.LoadLockedReq_hits::switch_cpus0.data       248063                       # number of LoadLockedReq hits
system.cpu0.dcache.LoadLockedReq_hits::total       248063                       # number of LoadLockedReq hits
system.cpu0.dcache.StoreCondReq_hits::switch_cpus0.data       234025                       # number of StoreCondReq hits
system.cpu0.dcache.StoreCondReq_hits::total       234025                       # number of StoreCondReq hits
system.cpu0.dcache.demand_hits::switch_cpus0.data    142832823                       # number of demand (read+write) hits
system.cpu0.dcache.demand_hits::total       142832823                       # number of demand (read+write) hits
system.cpu0.dcache.overall_hits::switch_cpus0.data    142873353                       # number of overall hits
system.cpu0.dcache.overall_hits::total      142873353                       # number of overall hits
system.cpu0.dcache.ReadReq_misses::switch_cpus0.data     25310551                       # number of ReadReq misses
system.cpu0.dcache.ReadReq_misses::total     25310551                       # number of ReadReq misses
system.cpu0.dcache.WriteReq_misses::switch_cpus0.data      1270969                       # number of WriteReq misses
system.cpu0.dcache.WriteReq_misses::total      1270969                       # number of WriteReq misses
system.cpu0.dcache.SoftPFReq_misses::switch_cpus0.data        50911                       # number of SoftPFReq misses
system.cpu0.dcache.SoftPFReq_misses::total        50911                       # number of SoftPFReq misses
system.cpu0.dcache.LoadLockedReq_misses::switch_cpus0.data         4689                       # number of LoadLockedReq misses
system.cpu0.dcache.LoadLockedReq_misses::total         4689                       # number of LoadLockedReq misses
system.cpu0.dcache.StoreCondReq_misses::switch_cpus0.data         4520                       # number of StoreCondReq misses
system.cpu0.dcache.StoreCondReq_misses::total         4520                       # number of StoreCondReq misses
system.cpu0.dcache.demand_misses::switch_cpus0.data     26581520                       # number of demand (read+write) misses
system.cpu0.dcache.demand_misses::total      26581520                       # number of demand (read+write) misses
system.cpu0.dcache.overall_misses::switch_cpus0.data     26632431                       # number of overall misses
system.cpu0.dcache.overall_misses::total     26632431                       # number of overall misses
system.cpu0.dcache.ReadReq_miss_latency::switch_cpus0.data 1297862235500                       # number of ReadReq miss cycles
system.cpu0.dcache.ReadReq_miss_latency::total 1297862235500                       # number of ReadReq miss cycles
system.cpu0.dcache.WriteReq_miss_latency::switch_cpus0.data  29962340189                       # number of WriteReq miss cycles
system.cpu0.dcache.WriteReq_miss_latency::total  29962340189                       # number of WriteReq miss cycles
system.cpu0.dcache.LoadLockedReq_miss_latency::switch_cpus0.data    180261000                       # number of LoadLockedReq miss cycles
system.cpu0.dcache.LoadLockedReq_miss_latency::total    180261000                       # number of LoadLockedReq miss cycles
system.cpu0.dcache.StoreCondReq_miss_latency::switch_cpus0.data     29384000                       # number of StoreCondReq miss cycles
system.cpu0.dcache.StoreCondReq_miss_latency::total     29384000                       # number of StoreCondReq miss cycles
system.cpu0.dcache.StoreCondFailReq_miss_latency::switch_cpus0.data        38500                       # number of StoreCondFailReq miss cycles
system.cpu0.dcache.StoreCondFailReq_miss_latency::total        38500                       # number of StoreCondFailReq miss cycles
system.cpu0.dcache.demand_miss_latency::switch_cpus0.data 1327824575689                       # number of demand (read+write) miss cycles
system.cpu0.dcache.demand_miss_latency::total 1327824575689                       # number of demand (read+write) miss cycles
system.cpu0.dcache.overall_miss_latency::switch_cpus0.data 1327824575689                       # number of overall miss cycles
system.cpu0.dcache.overall_miss_latency::total 1327824575689                       # number of overall miss cycles
system.cpu0.dcache.ReadReq_accesses::switch_cpus0.data    122064759                       # number of ReadReq accesses(hits+misses)
system.cpu0.dcache.ReadReq_accesses::total    122064759                       # number of ReadReq accesses(hits+misses)
system.cpu0.dcache.WriteReq_accesses::switch_cpus0.data     47349584                       # number of WriteReq accesses(hits+misses)
system.cpu0.dcache.WriteReq_accesses::total     47349584                       # number of WriteReq accesses(hits+misses)
system.cpu0.dcache.SoftPFReq_accesses::switch_cpus0.data        91441                       # number of SoftPFReq accesses(hits+misses)
system.cpu0.dcache.SoftPFReq_accesses::total        91441                       # number of SoftPFReq accesses(hits+misses)
system.cpu0.dcache.LoadLockedReq_accesses::switch_cpus0.data       252752                       # number of LoadLockedReq accesses(hits+misses)
system.cpu0.dcache.LoadLockedReq_accesses::total       252752                       # number of LoadLockedReq accesses(hits+misses)
system.cpu0.dcache.StoreCondReq_accesses::switch_cpus0.data       238545                       # number of StoreCondReq accesses(hits+misses)
system.cpu0.dcache.StoreCondReq_accesses::total       238545                       # number of StoreCondReq accesses(hits+misses)
system.cpu0.dcache.demand_accesses::switch_cpus0.data    169414343                       # number of demand (read+write) accesses
system.cpu0.dcache.demand_accesses::total    169414343                       # number of demand (read+write) accesses
system.cpu0.dcache.overall_accesses::switch_cpus0.data    169505784                       # number of overall (read+write) accesses
system.cpu0.dcache.overall_accesses::total    169505784                       # number of overall (read+write) accesses
system.cpu0.dcache.ReadReq_miss_rate::switch_cpus0.data     0.207353                       # miss rate for ReadReq accesses
system.cpu0.dcache.ReadReq_miss_rate::total     0.207353                       # miss rate for ReadReq accesses
system.cpu0.dcache.WriteReq_miss_rate::switch_cpus0.data     0.026842                       # miss rate for WriteReq accesses
system.cpu0.dcache.WriteReq_miss_rate::total     0.026842                       # miss rate for WriteReq accesses
system.cpu0.dcache.SoftPFReq_miss_rate::switch_cpus0.data     0.556763                       # miss rate for SoftPFReq accesses
system.cpu0.dcache.SoftPFReq_miss_rate::total     0.556763                       # miss rate for SoftPFReq accesses
system.cpu0.dcache.LoadLockedReq_miss_rate::switch_cpus0.data     0.018552                       # miss rate for LoadLockedReq accesses
system.cpu0.dcache.LoadLockedReq_miss_rate::total     0.018552                       # miss rate for LoadLockedReq accesses
system.cpu0.dcache.StoreCondReq_miss_rate::switch_cpus0.data     0.018948                       # miss rate for StoreCondReq accesses
system.cpu0.dcache.StoreCondReq_miss_rate::total     0.018948                       # miss rate for StoreCondReq accesses
system.cpu0.dcache.demand_miss_rate::switch_cpus0.data     0.156902                       # miss rate for demand accesses
system.cpu0.dcache.demand_miss_rate::total     0.156902                       # miss rate for demand accesses
system.cpu0.dcache.overall_miss_rate::switch_cpus0.data     0.157118                       # miss rate for overall accesses
system.cpu0.dcache.overall_miss_rate::total     0.157118                       # miss rate for overall accesses
system.cpu0.dcache.ReadReq_avg_miss_latency::switch_cpus0.data 51277.518040                       # average ReadReq miss latency
system.cpu0.dcache.ReadReq_avg_miss_latency::total 51277.518040                       # average ReadReq miss latency
system.cpu0.dcache.WriteReq_avg_miss_latency::switch_cpus0.data 23574.406763                       # average WriteReq miss latency
system.cpu0.dcache.WriteReq_avg_miss_latency::total 23574.406763                       # average WriteReq miss latency
system.cpu0.dcache.LoadLockedReq_avg_miss_latency::switch_cpus0.data 38443.378119                       # average LoadLockedReq miss latency
system.cpu0.dcache.LoadLockedReq_avg_miss_latency::total 38443.378119                       # average LoadLockedReq miss latency
system.cpu0.dcache.StoreCondReq_avg_miss_latency::switch_cpus0.data  6500.884956                       # average StoreCondReq miss latency
system.cpu0.dcache.StoreCondReq_avg_miss_latency::total  6500.884956                       # average StoreCondReq miss latency
system.cpu0.dcache.StoreCondFailReq_avg_miss_latency::switch_cpus0.data          inf                       # average StoreCondFailReq miss latency
system.cpu0.dcache.StoreCondFailReq_avg_miss_latency::total          inf                       # average StoreCondFailReq miss latency
system.cpu0.dcache.demand_avg_miss_latency::switch_cpus0.data 49952.921266                       # average overall miss latency
system.cpu0.dcache.demand_avg_miss_latency::total 49952.921266                       # average overall miss latency
system.cpu0.dcache.overall_avg_miss_latency::switch_cpus0.data 49857.430427                       # average overall miss latency
system.cpu0.dcache.overall_avg_miss_latency::total 49857.430427                       # average overall miss latency
system.cpu0.dcache.blocked_cycles::no_mshrs      1706876                       # number of cycles access was blocked
system.cpu0.dcache.blocked_cycles::no_targets     33813412                       # number of cycles access was blocked
system.cpu0.dcache.blocked::no_mshrs            34677                       # number of cycles access was blocked
system.cpu0.dcache.blocked::no_targets         337949                       # number of cycles access was blocked
system.cpu0.dcache.avg_blocked_cycles::no_mshrs    49.222136                       # average number of cycles each access was blocked
system.cpu0.dcache.avg_blocked_cycles::no_targets   100.054777                       # average number of cycles each access was blocked
system.cpu0.dcache.writebacks::writebacks     11925167                       # number of writebacks
system.cpu0.dcache.writebacks::total         11925167                       # number of writebacks
[...]
system.switch_cpus3.commit.op_class_0::SimdFloatAlu            0      0.00%     64.73% # Class of committed instruction
system.switch_cpus3.commit.op_class_0::SimdFloatCmp            5      0.00%     64.73% # Class of committed instruction
system.switch_cpus3.commit.op_class_0::SimdFloatCvt            4      0.00%     64.73% # Class of committed instruction
system.switch_cpus3.commit.op_class_0::SimdFloatDiv            0      0.00%     64.73% # Class of committed instruction
system.switch_cpus3.commit.op_class_0::SimdFloatMisc          821      0.00%     64.73% # Class of committed instruction
system.switch_cpus3.commit.op_class_0::SimdFloatMult            2      0.00%     64.73% # Class of committed instruction
system.switch_cpus3.commit.op_class_0::SimdFloatMultAcc            0      0.00%     64.73% # Class of committed instruction
system.switch_cpus3.commit.op_class_0::SimdFloatSqrt            0      0.00%     64.73% # Class of committed instruction
system.switch_cpus3.commit.op_class_0::MemRead    214868773     17.76%     82.49% # Class of committed instruction
system.switch_cpus3.commit.op_class_0::MemWrite    211908574     17.51%    100.00% # Class of committed instruction
system.switch_cpus3.commit.op_class_0::IprAccess            0      0.00%    100.00% # Class of committed instruction
system.switch_cpus3.commit.op_class_0::InstPrefetch            0      0.00%    100.00% # Class of committed instruction
system.switch_cpus3.commit.op_class_0::total   1209923324                       # Class of committed instruction
system.switch_cpus3.commit.bw_lim_events     26959116                       # number cycles where commit BW limit reached
system.switch_cpus3.rob.rob_reads          2195388444                       # The number of ROB reads
system.switch_cpus3.rob.rob_writes         2698724004                       # The number of ROB writes
system.switch_cpus3.timesIdled                 673711                       # Number of times that the entire CPU went into an idle state and unscheduled itself
system.switch_cpus3.idleCycles               94789958                       # Total number of cycles that the CPU has spent unscheduled due to idling
system.switch_cpus3.quiesceCycles             5293209                       # Total number of cycles that CPU has spent quiesced or waiting for an interrupt
system.switch_cpus3.committedInsts          971718535                       # Number of Instructions Simulated
system.switch_cpus3.committedOps           1209898739                       # Number of Ops (including micro ops) Simulated
system.switch_cpus3.cpi                      1.032695                       # CPI: Cycles Per Instruction
system.switch_cpus3.cpi_total                1.032695                       # CPI: Total CPI of All Threads
system.switch_cpus3.ipc                      0.968340                       # IPC: Instructions Per Cycle
system.switch_cpus3.ipc_total                0.968340                       # IPC: Total IPC of All Threads
system.switch_cpus3.int_regfile_reads      1433060578                       # number of integer regfile reads
system.switch_cpus3.int_regfile_writes      739479085                       # number of integer regfile writes
system.switch_cpus3.fp_regfile_reads             3584                       # number of floating regfile reads
system.switch_cpus3.fp_regfile_writes            2270                       # number of floating regfile writes
system.switch_cpus3.cc_regfile_reads       4482548576                       # number of cc regfile reads
system.switch_cpus3.cc_regfile_writes       706208690                       # number of cc regfile writes
system.switch_cpus3.misc_regfile_reads     2279687213                       # number of misc regfile reads
system.switch_cpus3.misc_regfile_writes       4080976                       # number of misc regfile writes
system.tol2bus.snoop_filter.tot_requests     69303639                       # Total number of requests made to the snoop filter.
system.tol2bus.snoop_filter.hit_single_requests     34408111                       # Number of requests hitting in the snoop filter with a single holder of the requested data.
system.tol2bus.snoop_filter.hit_multi_requests      1730785                       # Number of requests hitting in the snoop filter with multiple (>1) holders of the requested data.
system.tol2bus.snoop_filter.tot_snoops         135365                       # Total number of snoops made to the snoop filter.
system.tol2bus.snoop_filter.hit_single_snoops       132879                       # Number of snoops hitting in the snoop filter with a single holder of the requested data.
system.tol2bus.snoop_filter.hit_multi_snoops         2486                       # Number of snoops hitting in the snoop filter with multiple (>1) holders of the requested data.
system.tol2bus.pwrStateResidencyTicks::UNDEFINED 3740946499500                       # Cumulative time (in ticks) in various power states
system.tol2bus.trans_dist::ReadReq               4451                       # Transaction distribution
system.tol2bus.trans_dist::ReadResp          27272094                       # Transaction distribution
system.tol2bus.trans_dist::WriteReq              5374                       # Transaction distribution
system.tol2bus.trans_dist::WriteResp             5374                       # Transaction distribution
system.tol2bus.trans_dist::WritebackDirty     20351107                       # Transaction distribution
system.tol2bus.trans_dist::WritebackClean     22628800                       # Transaction distribution
system.tol2bus.trans_dist::CleanEvict         3705215                       # Transaction distribution
system.tol2bus.trans_dist::HardPFReq         10064498                       # Transaction distribution
system.tol2bus.trans_dist::UpgradeReq          132727                       # Transaction distribution
system.tol2bus.trans_dist::SCUpgradeReq         16725                       # Transaction distribution
system.tol2bus.trans_dist::UpgradeResp         149452                       # Transaction distribution
system.tol2bus.trans_dist::SCUpgradeFailReq            6                       # Transaction distribution
system.tol2bus.trans_dist::UpgradeFailResp            6                       # Transaction distribution
system.tol2bus.trans_dist::ReadExReq          7394670                       # Transaction distribution
system.tol2bus.trans_dist::ReadExResp         7394670                       # Transaction distribution
system.tol2bus.trans_dist::ReadCleanReq      14428222                       # Transaction distribution
system.tol2bus.trans_dist::ReadSharedReq     12839458                       # Transaction distribution
system.tol2bus.trans_dist::InvalidateReq         8390                       # Transaction distribution
system.tol2bus.pkt_count_system.cpu0.icache.mem_side::system.l2.cpu_side      4262718                       # Packet count per connected master and slave (bytes)
system.tol2bus.pkt_count_system.cpu0.dcache.mem_side::system.l2.cpu_side     35815361                       # Packet count per connected master and slave (bytes)
system.tol2bus.pkt_count_system.cpu0.itb_walker_cache.mem_side::system.l2.cpu_side         2786                       # Packet count per connected master and slave (bytes)
system.tol2bus.pkt_count_system.cpu0.dtb_walker_cache.mem_side::system.l2.cpu_side      4496808                       # Packet count per connected master and slave (bytes)
system.tol2bus.pkt_count_system.cpu1.icache.mem_side::system.l2.cpu_side      6605341                       # Packet count per connected master and slave (bytes)
system.tol2bus.pkt_count_system.cpu1.dcache.mem_side::system.l2.cpu_side      1128174                       # Packet count per connected master and slave (bytes)
system.tol2bus.pkt_count_system.cpu1.itb_walker_cache.mem_side::system.l2.cpu_side         9573                       # Packet count per connected master and slave (bytes)
system.tol2bus.pkt_count_system.cpu1.dtb_walker_cache.mem_side::system.l2.cpu_side        29076                       # Packet count per connected master and slave (bytes)
system.tol2bus.pkt_count_system.cpu2.icache.mem_side::system.l2.cpu_side      5697014                       # Packet count per connected master and slave (bytes)
system.tol2bus.pkt_count_system.cpu2.dcache.mem_side::system.l2.cpu_side     23437480                       # Packet count per connected master and slave (bytes)
system.tol2bus.pkt_count_system.cpu2.itb_walker_cache.mem_side::system.l2.cpu_side         3394                       # Packet count per connected master and slave (bytes)
system.tol2bus.pkt_count_system.cpu2.dtb_walker_cache.mem_side::system.l2.cpu_side       168301                       # Packet count per connected master and slave (bytes)
system.tol2bus.pkt_count_system.cpu3.icache.mem_side::system.l2.cpu_side     21716711                       # Packet count per connected master and slave (bytes)
system.tol2bus.pkt_count_system.cpu3.dcache.mem_side::system.l2.cpu_side       534163                       # Packet count per connected master and slave (bytes)
system.tol2bus.pkt_count_system.cpu3.itb_walker_cache.mem_side::system.l2.cpu_side         5267                       # Packet count per connected master and slave (bytes)
system.tol2bus.pkt_count_system.cpu3.dtb_walker_cache.mem_side::system.l2.cpu_side        16846                       # Packet count per connected master and slave (bytes)
system.tol2bus.pkt_count::total             103929013                       # Packet count per connected master and slave (bytes)
system.tol2bus.pkt_size_system.cpu0.icache.mem_side::system.l2.cpu_side    181874816                       # Cumulative packet size per connected master and slave (bytes)
system.tol2bus.pkt_size_system.cpu0.dcache.mem_side::system.l2.cpu_side   1526307066                       # Cumulative packet size per connected master and slave (bytes)
system.tol2bus.pkt_size_system.cpu0.itb_walker_cache.mem_side::system.l2.cpu_side        80512                       # Cumulative packet size per connected master and slave (bytes)
system.tol2bus.pkt_size_system.cpu0.dtb_walker_cache.mem_side::system.l2.cpu_side    191737152                       # Cumulative packet size per connected master and slave (bytes)
system.tol2bus.pkt_size_system.cpu1.icache.mem_side::system.l2.cpu_side    281827136                       # Cumulative packet size per connected master and slave (bytes)
system.tol2bus.pkt_size_system.cpu1.dcache.mem_side::system.l2.cpu_side     47126686                       # Cumulative packet size per connected master and slave (bytes)
system.tol2bus.pkt_size_system.cpu1.itb_walker_cache.mem_side::system.l2.cpu_side       323968                       # Cumulative packet size per connected master and slave (bytes)
system.tol2bus.pkt_size_system.cpu1.dtb_walker_cache.mem_side::system.l2.cpu_side      1092416                       # Cumulative packet size per connected master and slave (bytes)
system.tol2bus.pkt_size_system.cpu2.icache.mem_side::system.l2.cpu_side    243072000                       # Cumulative packet size per connected master and slave (bytes)
system.tol2bus.pkt_size_system.cpu2.dcache.mem_side::system.l2.cpu_side    989488612                       # Cumulative packet size per connected master and slave (bytes)
system.tol2bus.pkt_size_system.cpu2.itb_walker_cache.mem_side::system.l2.cpu_side        98112                       # Cumulative packet size per connected master and slave (bytes)
system.tol2bus.pkt_size_system.cpu2.dtb_walker_cache.mem_side::system.l2.cpu_side      2026432                       # Cumulative packet size per connected master and slave (bytes)
system.tol2bus.pkt_size_system.cpu3.icache.mem_side::system.l2.cpu_side    926579328                       # Cumulative packet size per connected master and slave (bytes)
system.tol2bus.pkt_size_system.cpu3.dcache.mem_side::system.l2.cpu_side     21904276                       # Cumulative packet size per connected master and slave (bytes)
system.tol2bus.pkt_size_system.cpu3.itb_walker_cache.mem_side::system.l2.cpu_side       157888                       # Cumulative packet size per connected master and slave (bytes)
system.tol2bus.pkt_size_system.cpu3.dtb_walker_cache.mem_side::system.l2.cpu_side       609472                       # Cumulative packet size per connected master and slave (bytes)
system.tol2bus.pkt_size::total             4414305872                       # Cumulative packet size per connected master and slave (bytes)
system.tol2bus.snoops                        22473157                       # Total snoops (count)
system.tol2bus.snoopTraffic                 554875072                       # Total snoop traffic (bytes)
system.tol2bus.snoop_fanout::samples         57092614                       # Request fanout histogram
system.tol2bus.snoop_fanout::mean            0.037134                       # Request fanout histogram
system.tol2bus.snoop_fanout::stdev           0.225920                       # Request fanout histogram
system.tol2bus.snoop_fanout::underflows             0      0.00%      0.00% # Request fanout histogram
system.tol2bus.snoop_fanout::0               55311126     96.88%     96.88% # Request fanout histogram
system.tol2bus.snoop_fanout::1                1519021      2.66%     99.54% # Request fanout histogram
system.tol2bus.snoop_fanout::2                 199757      0.35%     99.89% # Request fanout histogram
system.tol2bus.snoop_fanout::3                  55209      0.10%     99.99% # Request fanout histogram
system.tol2bus.snoop_fanout::4                   3503      0.01%     99.99% # Request fanout histogram
system.tol2bus.snoop_fanout::5                   2458      0.00%    100.00% # Request fanout histogram
system.tol2bus.snoop_fanout::6                   1166      0.00%    100.00% # Request fanout histogram
system.tol2bus.snoop_fanout::7                    374      0.00%    100.00% # Request fanout histogram
system.tol2bus.snoop_fanout::8                      0      0.00%    100.00% # Request fanout histogram
system.tol2bus.snoop_fanout::9                      0      0.00%    100.00% # Request fanout histogram
system.tol2bus.snoop_fanout::10                     0      0.00%    100.00% # Request fanout histogram
system.tol2bus.snoop_fanout::11                     0      0.00%    100.00% # Request fanout histogram
system.tol2bus.snoop_fanout::12                     0      0.00%    100.00% # Request fanout histogram
system.tol2bus.snoop_fanout::13                     0      0.00%    100.00% # Request fanout histogram
system.tol2bus.snoop_fanout::14                     0      0.00%    100.00% # Request fanout histogram
system.tol2bus.snoop_fanout::15                     0      0.00%    100.00% # Request fanout histogram
system.tol2bus.snoop_fanout::16                     0      0.00%    100.00% # Request fanout histogram
system.tol2bus.snoop_fanout::overflows              0      0.00%    100.00% # Request fanout histogram
system.tol2bus.snoop_fanout::min_value              0                       # Request fanout histogram
system.tol2bus.snoop_fanout::max_value              7                       # Request fanout histogram
system.tol2bus.snoop_fanout::total           57092614                       # Request fanout histogram
system.tol2bus.reqLayer0.occupancy        69150304993                       # Layer occupancy (ticks)
system.tol2bus.reqLayer0.utilization             13.7                       # Layer utilization (%)
system.tol2bus.snoopLayer0.occupancy          1490314                       # Layer occupancy (ticks)
system.tol2bus.snoopLayer0.utilization            0.0                       # Layer utilization (%)
system.tol2bus.respLayer0.occupancy        2134069120                       # Layer occupancy (ticks)
system.tol2bus.respLayer0.utilization             0.4                       # Layer utilization (%)
system.tol2bus.respLayer1.occupancy       17972095584                       # Layer occupancy (ticks)
system.tol2bus.respLayer1.utilization             3.6                       # Layer utilization (%)
system.tol2bus.respLayer2.occupancy           2296491                       # Layer occupancy (ticks)
system.tol2bus.respLayer2.utilization             0.0                       # Layer utilization (%)
system.tol2bus.respLayer3.occupancy        2253352978                       # Layer occupancy (ticks)
system.tol2bus.respLayer3.utilization             0.4                       # Layer utilization (%)
system.tol2bus.respLayer4.occupancy        3308726395                       # Layer occupancy (ticks)
system.tol2bus.respLayer4.utilization             0.7                       # Layer utilization (%)
system.tol2bus.respLayer5.occupancy         573665709                       # Layer occupancy (ticks)
system.tol2bus.respLayer5.utilization             0.1                       # Layer utilization (%)
system.tol2bus.respLayer6.occupancy           6794443                       # Layer occupancy (ticks)
system.tol2bus.respLayer6.utilization             0.0                       # Layer utilization (%)
system.tol2bus.respLayer7.occupancy          18094831                       # Layer occupancy (ticks)
system.tol2bus.respLayer7.utilization             0.0                       # Layer utilization (%)
system.tol2bus.respLayer8.occupancy        2855271936                       # Layer occupancy (ticks)
system.tol2bus.respLayer8.utilization             0.6                       # Layer utilization (%)
system.tol2bus.respLayer9.occupancy       11697845939                       # Layer occupancy (ticks)
system.tol2bus.respLayer9.utilization             2.3                       # Layer utilization (%)
system.tol2bus.respLayer10.occupancy          2800482                       # Layer occupancy (ticks)
system.tol2bus.respLayer10.utilization            0.0                       # Layer utilization (%)
system.tol2bus.respLayer11.occupancy        205098713                       # Layer occupancy (ticks)
system.tol2bus.respLayer11.utilization            0.0                       # Layer utilization (%)
system.tol2bus.respLayer12.occupancy      10871660597                       # Layer occupancy (ticks)
system.tol2bus.respLayer12.utilization            2.2                       # Layer utilization (%)
system.tol2bus.respLayer13.occupancy        275137636                       # Layer occupancy (ticks)
system.tol2bus.respLayer13.utilization            0.1                       # Layer utilization (%)
system.tol2bus.respLayer14.occupancy          4214469                       # Layer occupancy (ticks)
system.tol2bus.respLayer14.utilization            0.0                       # Layer utilization (%)
system.tol2bus.respLayer15.occupancy         11025418                       # Layer occupancy (ticks)
system.tol2bus.respLayer15.utilization            0.0                       # Layer utilization (%)
system.switch_cpus0.kern.inst.arm                   0                       # number of arm instructions executed
system.switch_cpus0.kern.inst.quiesce               0                       # number of quiesce instructions executed
system.switch_cpus1.kern.inst.arm                   0                       # number of arm instructions executed
system.switch_cpus1.kern.inst.quiesce               0                       # number of quiesce instructions executed
system.switch_cpus2.kern.inst.arm                   0                       # number of arm instructions executed
system.switch_cpus2.kern.inst.quiesce               0                       # number of quiesce instructions executed
system.switch_cpus3.kern.inst.arm                   0                       # number of arm instructions executed
system.switch_cpus3.kern.inst.quiesce               0                       # number of quiesce instructions executed

---------- End Simulation Statistics   ----------
