
---------- Begin Simulation Statistics ----------
sim_seconds                                  0.504230                       # Number of seconds simulated
sim_ticks                                504230298500                       # Number of ticks simulated
final_tick                               3740773469500                       # Number of ticks from beginning of simulation (restored from checkpoints and never reset)
sim_freq                                 1000000000000                       # Frequency of simulated ticks
host_inst_rate                                 106813                       # Simulator instruction rate (inst/s)
host_op_rate                                   127223                       # Simulator op (including micro ops) rate (op/s)
host_tick_rate                               18066088                       # Simulator tick rate (ticks/s)
host_mem_usage                                2638368                       # Number of bytes of host memory used
host_seconds                                 27910.32                       # Real time elapsed on the host
sim_insts                                  2981195879                       # Number of instructions simulated
sim_ops                                    3550829066                       # Number of ops (including micro ops) simulated
system.voltage_domain.voltage                       1                       # Voltage in Volts
system.clk_domain.clock                          1000                       # Clock period in ticks
system.mem_ctrls.pwrStateResidencyTicks::UNDEFINED 3740773469500                       # Cumulative time (in ticks) in various power states
system.mem_ctrls.bytes_read::l2.prefetcher    463858176                       # Number of bytes read from this memory
system.mem_ctrls.bytes_read::switch_cpus0.dtb.walker      4643776                       # Number of bytes read from this memory
system.mem_ctrls.bytes_read::switch_cpus0.itb.walker        21632                       # Number of bytes read from this memory
system.mem_ctrls.bytes_read::switch_cpus0.inst      9624064                       # Number of bytes read from this memory
system.mem_ctrls.bytes_read::switch_cpus0.data    250312384                       # Number of bytes read from this memory
system.mem_ctrls.bytes_read::switch_cpus1.dtb.walker       287296                       # Number of bytes read from this memory
system.mem_ctrls.bytes_read::switch_cpus1.itb.walker       103552                       # Number of bytes read from this memory
system.mem_ctrls.bytes_read::switch_cpus1.inst     15894016                       # Number of bytes read from this memory
system.mem_ctrls.bytes_read::switch_cpus1.data      5946816                       # Number of bytes read from this memory
system.mem_ctrls.bytes_read::switch_cpus2.dtb.walker       454272                       # Number of bytes read from this memory
system.mem_ctrls.bytes_read::switch_cpus2.itb.walker        20608                       # Number of bytes read from this memory
system.mem_ctrls.bytes_read::switch_cpus2.inst     24737216                       # Number of bytes read from this memory
system.mem_ctrls.bytes_read::switch_cpus2.data     51744128                       # Number of bytes read from this memory
system.mem_ctrls.bytes_read::switch_cpus3.dtb.walker       162560                       # Number of bytes read from this memory
system.mem_ctrls.bytes_read::switch_cpus3.itb.walker        46208                       # Number of bytes read from this memory
system.mem_ctrls.bytes_read::switch_cpus3.inst     54416704                       # Number of bytes read from this memory
system.mem_ctrls.bytes_read::switch_cpus3.data     12161728                       # Number of bytes read from this memory
system.mem_ctrls.bytes_read::total          894435136                       # Number of bytes read from this memory
system.mem_ctrls.bytes_inst_read::switch_cpus0.inst      9624064                       # Number of instructions bytes read from this memory
system.mem_ctrls.bytes_inst_read::switch_cpus1.inst     15894016                       # Number of instructions bytes read from this memory
system.mem_ctrls.bytes_inst_read::switch_cpus2.inst     24737216                       # Number of instructions bytes read from this memory
system.mem_ctrls.bytes_inst_read::switch_cpus3.inst     54416704                       # Number of instructions bytes read from this memory
system.mem_ctrls.bytes_inst_read::total     104672000                       # Number of instructions bytes read from this memory
system.mem_ctrls.bytes_written::writebacks    555410944                       # Number of bytes written to this memory
system.mem_ctrls.bytes_written::total       555410944                       # Number of bytes written to this memory
system.mem_ctrls.num_reads::l2.prefetcher      7247784                       # Number of read requests responded to by this memory
system.mem_ctrls.num_reads::switch_cpus0.dtb.walker        72559                       # Number of read requests responded to by this memory
system.mem_ctrls.num_reads::switch_cpus0.itb.walker          338                       # Number of read requests responded to by this memory
system.mem_ctrls.num_reads::switch_cpus0.inst       150376                       # Number of read requests responded to by this memory
system.mem_ctrls.num_reads::switch_cpus0.data      3911131                       # Number of read requests responded to by this memory
system.mem_ctrls.num_reads::switch_cpus1.dtb.walker         4489                       # Number of read requests responded to by this memory
system.mem_ctrls.num_reads::switch_cpus1.itb.walker         1618                       # Number of read requests responded to by this memory
system.mem_ctrls.num_reads::switch_cpus1.inst       248344                       # Number of read requests responded to by this memory
system.mem_ctrls.num_reads::switch_cpus1.data        92919                       # Number of read requests responded to by this memory
system.mem_ctrls.num_reads::switch_cpus2.dtb.walker         7098                       # Number of read requests responded to by this memory
system.mem_ctrls.num_reads::switch_cpus2.itb.walker          322                       # Number of read requests responded to by this memory
system.mem_ctrls.num_reads::switch_cpus2.inst       386519                       # Number of read requests responded to by this memory
system.mem_ctrls.num_reads::switch_cpus2.data       808502                       # Number of read requests responded to by this memory
system.mem_ctrls.num_reads::switch_cpus3.dtb.walker         2540                       # Number of read requests responded to by this memory
system.mem_ctrls.num_reads::switch_cpus3.itb.walker          722                       # Number of read requests responded to by this memory
system.mem_ctrls.num_reads::switch_cpus3.inst       850261                       # Number of read requests responded to by this memory
system.mem_ctrls.num_reads::switch_cpus3.data       190027                       # Number of read requests responded to by this memory
system.mem_ctrls.num_reads::total            13975549                       # Number of read requests responded to by this memory
system.mem_ctrls.num_writes::writebacks       8678296                       # Number of write requests responded to by this memory
system.mem_ctrls.num_writes::total            8678296                       # Number of write requests responded to by this memory
system.mem_ctrls.bw_read::l2.prefetcher     919933168                       # Total read bandwidth from this memory (bytes/s)
system.mem_ctrls.bw_read::switch_cpus0.dtb.walker      9209633                       # Total read bandwidth from this memory (bytes/s)
system.mem_ctrls.bw_read::switch_cpus0.itb.walker        42901                       # Total read bandwidth from this memory (bytes/s)
system.mem_ctrls.bw_read::switch_cpus0.inst     19086644                       # Total read bandwidth from this memory (bytes/s)
system.mem_ctrls.bw_read::switch_cpus0.data    496424719                       # Total read bandwidth from this memory (bytes/s)
system.mem_ctrls.bw_read::switch_cpus1.dtb.walker       569771                       # Total read bandwidth from this memory (bytes/s)
system.mem_ctrls.bw_read::switch_cpus1.itb.walker       205366                       # Total read bandwidth from this memory (bytes/s)
system.mem_ctrls.bw_read::switch_cpus1.inst     31521343                       # Total read bandwidth from this memory (bytes/s)
system.mem_ctrls.bw_read::switch_cpus1.data     11793849                       # Total read bandwidth from this memory (bytes/s)
system.mem_ctrls.bw_read::switch_cpus2.dtb.walker       900922                       # Total read bandwidth from this memory (bytes/s)
system.mem_ctrls.bw_read::switch_cpus2.itb.walker        40870                       # Total read bandwidth from this memory (bytes/s)
system.mem_ctrls.bw_read::switch_cpus2.inst     49059361                       # Total read bandwidth from this memory (bytes/s)
system.mem_ctrls.bw_read::switch_cpus2.data    102620029                       # Total read bandwidth from this memory (bytes/s)
system.mem_ctrls.bw_read::switch_cpus3.dtb.walker       322392                       # Total read bandwidth from this memory (bytes/s)
system.mem_ctrls.bw_read::switch_cpus3.itb.walker        91641                       # Total read bandwidth from this memory (bytes/s)
system.mem_ctrls.bw_read::switch_cpus3.inst    107920338                       # Total read bandwidth from this memory (bytes/s)
system.mem_ctrls.bw_read::switch_cpus3.data     24119392                       # Total read bandwidth from this memory (bytes/s)
system.mem_ctrls.bw_read::total            1773862338                       # Total read bandwidth from this memory (bytes/s)
system.mem_ctrls.bw_inst_read::switch_cpus0.inst     19086644                       # Instruction read bandwidth from this memory (bytes/s)
system.mem_ctrls.bw_inst_read::switch_cpus1.inst     31521343                       # Instruction read bandwidth from this memory (bytes/s)
system.mem_ctrls.bw_inst_read::switch_cpus2.inst     49059361                       # Instruction read bandwidth from this memory (bytes/s)
system.mem_ctrls.bw_inst_read::switch_cpus3.inst    107920338                       # Instruction read bandwidth from this memory (bytes/s)
system.mem_ctrls.bw_inst_read::total        207587684                       # Instruction read bandwidth from this memory (bytes/s)
system.mem_ctrls.bw_write::writebacks      1101502519                       # Write bandwidth from this memory (bytes/s)
system.mem_ctrls.bw_write::total           1101502519                       # Write bandwidth from this memory (bytes/s)
system.mem_ctrls.bw_total::writebacks      1101502519                       # Total bandwidth to/from this memory (bytes/s)
system.mem_ctrls.bw_total::l2.prefetcher    919933168                       # Total bandwidth to/from this memory (bytes/s)
system.mem_ctrls.bw_total::switch_cpus0.dtb.walker      9209633                       # Total bandwidth to/from this memory (bytes/s)
system.mem_ctrls.bw_total::switch_cpus0.itb.walker        42901                       # Total bandwidth to/from this memory (bytes/s)
system.mem_ctrls.bw_total::switch_cpus0.inst     19086644                       # Total bandwidth to/from this memory (bytes/s)
system.mem_ctrls.bw_total::switch_cpus0.data    496424719                       # Total bandwidth to/from this memory (bytes/s)
system.mem_ctrls.bw_total::switch_cpus1.dtb.walker       569771                       # Total bandwidth to/from this memory (bytes/s)
system.mem_ctrls.bw_total::switch_cpus1.itb.walker       205366                       # Total bandwidth to/from this memory (bytes/s)
system.mem_ctrls.bw_total::switch_cpus1.inst     31521343                       # Total bandwidth to/from this memory (bytes/s)
system.mem_ctrls.bw_total::switch_cpus1.data     11793849                       # Total bandwidth to/from this memory (bytes/s)
system.mem_ctrls.bw_total::switch_cpus2.dtb.walker       900922                       # Total bandwidth to/from this memory (bytes/s)
system.mem_ctrls.bw_total::switch_cpus2.itb.walker        40870                       # Total bandwidth to/from this memory (bytes/s)
system.mem_ctrls.bw_total::switch_cpus2.inst     49059361                       # Total bandwidth to/from this memory (bytes/s)
system.mem_ctrls.bw_total::switch_cpus2.data    102620029                       # Total bandwidth to/from this memory (bytes/s)
system.mem_ctrls.bw_total::switch_cpus3.dtb.walker       322392                       # Total bandwidth to/from this memory (bytes/s)
system.mem_ctrls.bw_total::switch_cpus3.itb.walker        91641                       # Total bandwidth to/from this memory (bytes/s)
system.mem_ctrls.bw_total::switch_cpus3.inst    107920338                       # Total bandwidth to/from this memory (bytes/s)
system.mem_ctrls.bw_total::switch_cpus3.data     24119392                       # Total bandwidth to/from this memory (bytes/s)
system.mem_ctrls.bw_total::total           2875364857                       # Total bandwidth to/from this memory (bytes/s)
system.mem_ctrls.readReqs                    13975551                       # Number of read requests accepted
system.mem_ctrls.writeReqs                    8678296                       # Number of write requests accepted
system.mem_ctrls.readBursts                  13975551                       # Number of DRAM read bursts, including those serviced by the write queue
system.mem_ctrls.writeBursts                  8678296                       # Number of DRAM write bursts, including those merged in the write queue
system.mem_ctrls.bytesReadDRAM              894044672                       # Total number of bytes read from DRAM
system.mem_ctrls.bytesReadWrQ                  390592                       # Total number of bytes read from write queue
system.mem_ctrls.bytesWritten               555409216                       # Total number of bytes written to DRAM
system.mem_ctrls.bytesReadSys               894435264                       # Total read bytes from the system interface side
system.mem_ctrls.bytesWrittenSys            555410944                       # Total written bytes from the system interface side
system.mem_ctrls.servicedByWrQ                   6103                       # Number of DRAM read bursts serviced by the write queue
system.mem_ctrls.mergedWrBursts                     1                       # Number of DRAM write bursts merged with an existing one
system.mem_ctrls.neitherReadNorWriteReqs            0                       # Number of requests that are neither read nor write
system.mem_ctrls.perBankRdBursts::0            851668                       # Per bank write bursts
system.mem_ctrls.perBankRdBursts::1            893301                       # Per bank write bursts
system.mem_ctrls.perBankRdBursts::2            851869                       # Per bank write bursts
system.mem_ctrls.perBankRdBursts::3            866434                       # Per bank write bursts
system.mem_ctrls.perBankRdBursts::4            909362                       # Per bank write bursts
system.mem_ctrls.perBankRdBursts::5            814037                       # Per bank write bursts
system.mem_ctrls.perBankRdBursts::6           1059468                       # Per bank write bursts
system.mem_ctrls.perBankRdBursts::7            808440                       # Per bank write bursts
system.mem_ctrls.perBankRdBursts::8            851552                       # Per bank write bursts
system.mem_ctrls.perBankRdBursts::9            811362                       # Per bank write bursts
system.mem_ctrls.perBankRdBursts::10           971631                       # Per bank write bursts
system.mem_ctrls.perBankRdBursts::11           856426                       # Per bank write bursts
system.mem_ctrls.perBankRdBursts::12           808574                       # Per bank write bursts
system.mem_ctrls.perBankRdBursts::13           902232                       # Per bank write bursts
system.mem_ctrls.perBankRdBursts::14           923274                       # Per bank write bursts
system.mem_ctrls.perBankRdBursts::15           789818                       # Per bank write bursts
system.mem_ctrls.perBankWrBursts::0            536966                       # Per bank write bursts
system.mem_ctrls.perBankWrBursts::1            536507                       # Per bank write bursts
system.mem_ctrls.perBankWrBursts::2            518858                       # Per bank write bursts
system.mem_ctrls.perBankWrBursts::3            533130                       # Per bank write bursts
system.mem_ctrls.perBankWrBursts::4            536896                       # Per bank write bursts
system.mem_ctrls.perBankWrBursts::5            531437                       # Per bank write bursts
system.mem_ctrls.perBankWrBursts::6            561714                       # Per bank write bursts
system.mem_ctrls.perBankWrBursts::7            531120                       # Per bank write bursts
system.mem_ctrls.perBankWrBursts::8            549757                       # Per bank write bursts
system.mem_ctrls.perBankWrBursts::9            547135                       # Per bank write bursts
system.mem_ctrls.perBankWrBursts::10           548213                       # Per bank write bursts
system.mem_ctrls.perBankWrBursts::11           536360                       # Per bank write bursts
system.mem_ctrls.perBankWrBursts::12           568612                       # Per bank write bursts
system.mem_ctrls.perBankWrBursts::13           546934                       # Per bank write bursts
system.mem_ctrls.perBankWrBursts::14           556142                       # Per bank write bursts
system.mem_ctrls.perBankWrBursts::15           538488                       # Per bank write bursts
system.mem_ctrls.numRdRetry                         0                       # Number of times read queue was full causing retry
system.mem_ctrls.numWrRetry                      1502                       # Number of times write queue was full causing retry
system.mem_ctrls.totGap                  504230373000                       # Total gap between requests
system.mem_ctrls.readPktSize::0                     0                       # Read request sizes (log2)
system.mem_ctrls.readPktSize::1                     0                       # Read request sizes (log2)
system.mem_ctrls.readPktSize::2                     0                       # Read request sizes (log2)
system.mem_ctrls.readPktSize::3                     0                       # Read request sizes (log2)
system.mem_ctrls.readPktSize::4                     0                       # Read request sizes (log2)
system.mem_ctrls.readPktSize::5                     0                       # Read request sizes (log2)
system.mem_ctrls.readPktSize::6              13975551                       # Read request sizes (log2)
system.mem_ctrls.writePktSize::0                    0                       # Write request sizes (log2)
system.mem_ctrls.writePktSize::1                    0                       # Write request sizes (log2)
system.mem_ctrls.writePktSize::2                    0                       # Write request sizes (log2)
system.mem_ctrls.writePktSize::3                    0                       # Write request sizes (log2)
system.mem_ctrls.writePktSize::4                    0                       # Write request sizes (log2)
system.mem_ctrls.writePktSize::5                    0                       # Write request sizes (log2)
system.mem_ctrls.writePktSize::6              8678296                       # Write request sizes (log2)
system.mem_ctrls.rdQLenPdf::0                 2889165                       # What read queue length does an incoming req see
system.mem_ctrls.rdQLenPdf::1                 3419181                       # What read queue length does an incoming req see
system.mem_ctrls.rdQLenPdf::2                 1792435                       # What read queue length does an incoming req see
system.mem_ctrls.rdQLenPdf::3                 1298008                       # What read queue length does an incoming req see
system.mem_ctrls.rdQLenPdf::4                 1052342                       # What read queue length does an incoming req see
system.mem_ctrls.rdQLenPdf::5                  832263                       # What read queue length does an incoming req see
system.mem_ctrls.rdQLenPdf::6                  677447                       # What read queue length does an incoming req see
system.mem_ctrls.rdQLenPdf::7                  612294                       # What read queue length does an incoming req see
system.mem_ctrls.rdQLenPdf::8                  531521                       # What read queue length does an incoming req see
system.mem_ctrls.rdQLenPdf::9                  417915                       # What read queue length does an incoming req see
system.mem_ctrls.rdQLenPdf::10                 258299                       # What read queue length does an incoming req see
system.mem_ctrls.rdQLenPdf::11                 117246                       # What read queue length does an incoming req see
system.mem_ctrls.rdQLenPdf::12                  44980                       # What read queue length does an incoming req see
system.mem_ctrls.rdQLenPdf::13                  21271                       # What read queue length does an incoming req see
system.mem_ctrls.rdQLenPdf::14                   4170                       # What read queue length does an incoming req see
system.mem_ctrls.rdQLenPdf::15                    911                       # What read queue length does an incoming req see
system.mem_ctrls.rdQLenPdf::16                      0                       # What read queue length does an incoming req see
system.mem_ctrls.rdQLenPdf::17                      0                       # What read queue length does an incoming req see
system.mem_ctrls.rdQLenPdf::18                      0                       # What read queue length does an incoming req see
system.mem_ctrls.rdQLenPdf::19                      0                       # What read queue length does an incoming req see
system.mem_ctrls.rdQLenPdf::20                      0                       # What read queue length does an incoming req see
system.mem_ctrls.rdQLenPdf::21                      0                       # What read queue length does an incoming req see
system.mem_ctrls.rdQLenPdf::22                      0                       # What read queue length does an incoming req see
system.mem_ctrls.rdQLenPdf::23                      0                       # What read queue length does an incoming req see
system.mem_ctrls.rdQLenPdf::24                      0                       # What read queue length does an incoming req see
system.mem_ctrls.rdQLenPdf::25                      0                       # What read queue length does an incoming req see
system.mem_ctrls.rdQLenPdf::26                      0                       # What read queue length does an incoming req see
system.mem_ctrls.rdQLenPdf::27                      0                       # What read queue length does an incoming req see
system.mem_ctrls.rdQLenPdf::28                      0                       # What read queue length does an incoming req see
system.mem_ctrls.rdQLenPdf::29                      0                       # What read queue length does an incoming req see
system.mem_ctrls.rdQLenPdf::30                      0                       # What read queue length does an incoming req see
system.mem_ctrls.rdQLenPdf::31                      0                       # What read queue length does an incoming req see
system.mem_ctrls.wrQLenPdf::0                       0                       # What write queue length does an incoming req see
system.mem_ctrls.wrQLenPdf::1                       1                       # What write queue length does an incoming req see
system.mem_ctrls.wrQLenPdf::2                       1                       # What write queue length does an incoming req see
system.mem_ctrls.wrQLenPdf::3                       1                       # What write queue length does an incoming req see
system.mem_ctrls.wrQLenPdf::4                       1                       # What write queue length does an incoming req see
system.mem_ctrls.wrQLenPdf::5                       1                       # What write queue length does an incoming req see
system.mem_ctrls.wrQLenPdf::6                       1                       # What write queue length does an incoming req see
system.mem_ctrls.wrQLenPdf::7                       1                       # What write queue length does an incoming req see
system.mem_ctrls.wrQLenPdf::8                       1                       # What write queue length does an incoming req see
system.mem_ctrls.wrQLenPdf::9                       1                       # What write queue length does an incoming req see
system.mem_ctrls.wrQLenPdf::10                      1                       # What write queue length does an incoming req see
system.mem_ctrls.wrQLenPdf::11                      1                       # What write queue length does an incoming req see
system.mem_ctrls.wrQLenPdf::12                      1                       # What write queue length does an incoming req see
system.mem_ctrls.wrQLenPdf::13                      1                       # What write queue length does an incoming req see
system.mem_ctrls.wrQLenPdf::14                      1                       # What write queue length does an incoming req see
system.mem_ctrls.wrQLenPdf::15                  10987                       # What write queue length does an incoming req see
system.mem_ctrls.wrQLenPdf::16                  14046                       # What write queue length does an incoming req see
system.mem_ctrls.wrQLenPdf::17                  76559                       # What write queue length does an incoming req see
system.mem_ctrls.wrQLenPdf::18                 134596                       # What write queue length does an incoming req see
system.mem_ctrls.wrQLenPdf::19                 184215                       # What write queue length does an incoming req see
system.mem_ctrls.wrQLenPdf::20                 241902                       # What write queue length does an incoming req see
system.mem_ctrls.wrQLenPdf::21                 321396                       # What write queue length does an incoming req see
system.mem_ctrls.wrQLenPdf::22                 389333                       # What write queue length does an incoming req see
system.mem_ctrls.wrQLenPdf::23                 450545                       # What write queue length does an incoming req see
system.mem_ctrls.wrQLenPdf::24                 504894                       # What write queue length does an incoming req see
system.mem_ctrls.wrQLenPdf::25                 556217                       # What write queue length does an incoming req see
system.mem_ctrls.wrQLenPdf::26                 608008                       # What write queue length does an incoming req see
system.mem_ctrls.wrQLenPdf::27                 660102                       # What write queue length does an incoming req see
system.mem_ctrls.wrQLenPdf::28                 719999                       # What write queue length does an incoming req see
system.mem_ctrls.wrQLenPdf::29                 800399                       # What write queue length does an incoming req see
system.mem_ctrls.wrQLenPdf::30                 826102                       # What write queue length does an incoming req see
system.mem_ctrls.wrQLenPdf::31                 815841                       # What write queue length does an incoming req see
system.mem_ctrls.wrQLenPdf::32                 726910                       # What write queue length does an incoming req see
system.mem_ctrls.wrQLenPdf::33                 156248                       # What write queue length does an incoming req see
system.mem_ctrls.wrQLenPdf::34                  99406                       # What write queue length does an incoming req see
system.mem_ctrls.wrQLenPdf::35                  67442                       # What write queue length does an incoming req see
system.mem_ctrls.wrQLenPdf::36                  47677                       # What write queue length does an incoming req see
system.mem_ctrls.wrQLenPdf::37                  35061                       # What write queue length does an incoming req see
system.mem_ctrls.wrQLenPdf::38                  26578                       # What write queue length does an incoming req see
system.mem_ctrls.wrQLenPdf::39                  21088                       # What write queue length does an incoming req see
system.mem_ctrls.wrQLenPdf::40                  16965                       # What write queue length does an incoming req see
system.mem_ctrls.wrQLenPdf::41                  14413                       # What write queue length does an incoming req see
system.mem_ctrls.wrQLenPdf::42                  12099                       # What write queue length does an incoming req see
system.mem_ctrls.wrQLenPdf::43                  10700                       # What write queue length does an incoming req see
system.mem_ctrls.wrQLenPdf::44                  10058                       # What write queue length does an incoming req see
system.mem_ctrls.wrQLenPdf::45                   9464                       # What write queue length does an incoming req see
system.mem_ctrls.wrQLenPdf::46                   8461                       # What write queue length does an incoming req see
system.mem_ctrls.wrQLenPdf::47                   7990                       # What write queue length does an incoming req see
system.mem_ctrls.wrQLenPdf::48                   7765                       # What write queue length does an incoming req see
system.mem_ctrls.wrQLenPdf::49                   7311                       # What write queue length does an incoming req see
system.mem_ctrls.wrQLenPdf::50                   7331                       # What write queue length does an incoming req see
system.mem_ctrls.wrQLenPdf::51                   7535                       # What write queue length does an incoming req see
system.mem_ctrls.wrQLenPdf::52                   7726                       # What write queue length does an incoming req see
system.mem_ctrls.wrQLenPdf::53                   7664                       # What write queue length does an incoming req see
system.mem_ctrls.wrQLenPdf::54                   7867                       # What write queue length does an incoming req see
system.mem_ctrls.wrQLenPdf::55                   7962                       # What write queue length does an incoming req see
system.mem_ctrls.wrQLenPdf::56                   5901                       # What write queue length does an incoming req see
system.mem_ctrls.wrQLenPdf::57                   4780                       # What write queue length does an incoming req see
system.mem_ctrls.wrQLenPdf::58                   4236                       # What write queue length does an incoming req see
system.mem_ctrls.wrQLenPdf::59                   3622                       # What write queue length does an incoming req see
system.mem_ctrls.wrQLenPdf::60                   3156                       # What write queue length does an incoming req see
system.mem_ctrls.wrQLenPdf::61                   2610                       # What write queue length does an incoming req see
system.mem_ctrls.wrQLenPdf::62                   2395                       # What write queue length does an incoming req see
system.mem_ctrls.wrQLenPdf::63                   4719                       # What write queue length does an incoming req see
system.mem_ctrls.bytesPerActivate::samples     11371985                       # Bytes accessed per row activation
system.mem_ctrls.bytesPerActivate::mean    127.458374                       # Bytes accessed per row activation
system.mem_ctrls.bytesPerActivate::gmean    88.982884                       # Bytes accessed per row activation
system.mem_ctrls.bytesPerActivate::stdev   175.120034                       # Bytes accessed per row activation
system.mem_ctrls.bytesPerActivate::0-127      8548914     75.18%     75.18% # Bytes accessed per row activation
system.mem_ctrls.bytesPerActivate::128-255      1630449     14.34%     89.51% # Bytes accessed per row activation
system.mem_ctrls.bytesPerActivate::256-383       412093      3.62%     93.14% # Bytes accessed per row activation
system.mem_ctrls.bytesPerActivate::384-511       177117      1.56%     94.69% # Bytes accessed per row activation
system.mem_ctrls.bytesPerActivate::512-639       196792      1.73%     96.42% # Bytes accessed per row activation
system.mem_ctrls.bytesPerActivate::640-767        89854      0.79%     97.21% # Bytes accessed per row activation
system.mem_ctrls.bytesPerActivate::768-895        54826      0.48%     97.70% # Bytes accessed per row activation
system.mem_ctrls.bytesPerActivate::896-1023        61463      0.54%     98.24% # Bytes accessed per row activation
system.mem_ctrls.bytesPerActivate::1024-1151       200477      1.76%    100.00% # Bytes accessed per row activation
system.mem_ctrls.bytesPerActivate::total     11371985                       # Bytes accessed per row activation
system.mem_ctrls.rdPerTurnAround::samples       538667                       # Reads before turning the bus around for writes
system.mem_ctrls.rdPerTurnAround::mean      25.971662                       # Reads before turning the bus around for writes
system.mem_ctrls.rdPerTurnAround::stdev     42.201106                       # Reads before turning the bus around for writes
system.mem_ctrls.rdPerTurnAround::0-1023       538658    100.00%    100.00% # Reads before turning the bus around for writes
system.mem_ctrls.rdPerTurnAround::1024-2047            8      0.00%    100.00% # Reads before turning the bus around for writes
system.mem_ctrls.rdPerTurnAround::27648-28671            1      0.00%    100.00% # Reads before turning the bus around for writes
system.mem_ctrls.rdPerTurnAround::total        538667                       # Reads before turning the bus around for writes
system.mem_ctrls.wrPerTurnAround::samples       538667                       # Writes before turning the bus around for reads
system.mem_ctrls.wrPerTurnAround::mean      16.110638                       # Writes before turning the bus around for reads
system.mem_ctrls.wrPerTurnAround::gmean     16.095091                       # Writes before turning the bus around for reads
system.mem_ctrls.wrPerTurnAround::stdev      0.902369                       # Writes before turning the bus around for reads
system.mem_ctrls.wrPerTurnAround::16-19        533696     99.08%     99.08% # Writes before turning the bus around for reads
system.mem_ctrls.wrPerTurnAround::20-23          4034      0.75%     99.83% # Writes before turning the bus around for reads
system.mem_ctrls.wrPerTurnAround::24-27           568      0.11%     99.93% # Writes before turning the bus around for reads
system.mem_ctrls.wrPerTurnAround::28-31           165      0.03%     99.96% # Writes before turning the bus around for reads
system.mem_ctrls.wrPerTurnAround::32-35            75      0.01%     99.98% # Writes before turning the bus around for reads
system.mem_ctrls.wrPerTurnAround::36-39            45      0.01%     99.98% # Writes before turning the bus around for reads
system.mem_ctrls.wrPerTurnAround::40-43            20      0.00%     99.99% # Writes before turning the bus around for reads
system.mem_ctrls.wrPerTurnAround::44-47            15      0.00%     99.99% # Writes before turning the bus around for reads
system.mem_ctrls.wrPerTurnAround::48-51            14      0.00%     99.99% # Writes before turning the bus around for reads
system.mem_ctrls.wrPerTurnAround::52-55             3      0.00%     99.99% # Writes before turning the bus around for reads
system.mem_ctrls.wrPerTurnAround::56-59             3      0.00%     99.99% # Writes before turning the bus around for reads
system.mem_ctrls.wrPerTurnAround::60-63             6      0.00%    100.00% # Writes before turning the bus around for reads
system.mem_ctrls.wrPerTurnAround::64-67             6      0.00%    100.00% # Writes before turning the bus around for reads
system.mem_ctrls.wrPerTurnAround::68-71             4      0.00%    100.00% # Writes before turning the bus around for reads
system.mem_ctrls.wrPerTurnAround::72-75             1      0.00%    100.00% # Writes before turning the bus around for reads
system.mem_ctrls.wrPerTurnAround::76-79             5      0.00%    100.00% # Writes before turning the bus around for reads
system.mem_ctrls.wrPerTurnAround::92-95             2      0.00%    100.00% # Writes before turning the bus around for reads
system.mem_ctrls.wrPerTurnAround::96-99             1      0.00%    100.00% # Writes before turning the bus around for reads
system.mem_ctrls.wrPerTurnAround::100-103            2      0.00%    100.00% # Writes before turning the bus around for reads
system.mem_ctrls.wrPerTurnAround::104-107            1      0.00%    100.00% # Writes before turning the bus around for reads
system.mem_ctrls.wrPerTurnAround::128-131            1      0.00%    100.00% # Writes before turning the bus around for reads
system.mem_ctrls.wrPerTurnAround::total        538667                       # Writes before turning the bus around for reads
system.mem_ctrls.totQLat                 1147957089636                       # Total ticks spent queuing
system.mem_ctrls.totMemAccLat            1409884239636                       # Total ticks spent from burst creation until serviced by the DRAM
system.mem_ctrls.totBusLat                69847240000                       # Total ticks spent in databus transfers
system.mem_ctrls.avgQLat                     82176.27                       # Average queueing delay per DRAM burst
system.mem_ctrls.avgBusLat                    5000.00                       # Average bus latency per DRAM burst
system.mem_ctrls.avgMemAccLat               100926.27                       # Average memory access latency per DRAM burst
system.mem_ctrls.avgRdBW                      1773.09                       # Average DRAM read bandwidth in MiByte/s
system.mem_ctrls.avgWrBW                      1101.50                       # Average achieved write bandwidth in MiByte/s
system.mem_ctrls.avgRdBWSys                   1773.86                       # Average system read bandwidth in MiByte/s
system.mem_ctrls.avgWrBWSys                   1101.50                       # Average system write bandwidth in MiByte/s
system.mem_ctrls.peakBW                      12800.00                       # Theoretical peak bandwidth in MiByte/s
system.mem_ctrls.busUtil                        22.46                       # Data bus utilization in percentage
system.mem_ctrls.busUtilRead                    13.85                       # Data bus utilization in percentage for reads
system.mem_ctrls.busUtilWrite                    8.61                       # Data bus utilization in percentage for writes
system.mem_ctrls.avgRdQLen                       3.81                       # Average read queue length when enqueuing
system.mem_ctrls.avgWrQLen                      27.46                       # Average write queue length when enqueuing
system.mem_ctrls.readRowHits                  8235850                       # Number of row buffer hits during reads
system.mem_ctrls.writeRowHits                 3039881                       # Number of row buffer hits during writes
system.mem_ctrls.readRowHitRate                 58.96                       # Row buffer hit rate for reads
system.mem_ctrls.writeRowHitRate                35.03                       # Row buffer hit rate for writes
system.mem_ctrls.avgGap                      22258.05                       # Average gap between requests
system.mem_ctrls.pageHitRate                    49.79                       # Row buffer hit rate, read and write combined
system.mem_ctrls_0.actEnergy              43240470840                       # Energy for activate commands per rank (pJ)
system.mem_ctrls_0.preEnergy              23593510875                       # Energy for precharge commands per rank (pJ)
system.mem_ctrls_0.readEnergy             55106220000                       # Energy for read commands per rank (pJ)
system.mem_ctrls_0.writeEnergy            27777297600                       # Energy for write commands per rank (pJ)
system.mem_ctrls_0.refreshEnergy          32979098880                       # Energy for refresh commands per rank (pJ)
system.mem_ctrls_0.actBackEnergy         340498189935                       # Energy for active background per rank (pJ)
system.mem_ctrls_0.preBackEnergy           4271177250                       # Energy for precharge background per rank (pJ)
system.mem_ctrls_0.totalEnergy           527465965380                       # Total energy per rank (pJ)
system.mem_ctrls_0.averagePower           1044.646343                       # Core power per rank (mW)
system.mem_ctrls_0.memoryStateTime::IDLE   5017158577                       # Time in different power states
system.mem_ctrls_0.memoryStateTime::REF   16837340000                       # Time in different power states
system.mem_ctrls_0.memoryStateTime::PRE_PDN            0                       # Time in different power states
system.mem_ctrls_0.memoryStateTime::ACT  482374530923                       # Time in different power states
system.mem_ctrls_0.memoryStateTime::ACT_PDN            0                       # Time in different power states
system.mem_ctrls_1.actEnergy              42786606240                       # Energy for activate commands per rank (pJ)
system.mem_ctrls_1.preEnergy              23345866500                       # Energy for precharge commands per rank (pJ)
system.mem_ctrls_1.readEnergy             54016146600                       # Energy for read commands per rank (pJ)
system.mem_ctrls_1.writeEnergy            28457781840                       # Energy for write commands per rank (pJ)
system.mem_ctrls_1.refreshEnergy          32979098880                       # Energy for refresh commands per rank (pJ)
system.mem_ctrls_1.actBackEnergy         339411596085                       # Energy for active background per rank (pJ)
system.mem_ctrls_1.preBackEnergy           5224331250                       # Energy for precharge background per rank (pJ)
system.mem_ctrls_1.totalEnergy           526221427395                       # Total energy per rank (pJ)
system.mem_ctrls_1.averagePower           1042.181530                       # Core power per rank (mW)
system.mem_ctrls_1.memoryStateTime::IDLE   6450821416                       # Time in different power states
system.mem_ctrls_1.memoryStateTime::REF   16837340000                       # Time in different power states
system.mem_ctrls_1.memoryStateTime::PRE_PDN            0                       # Time in different power states
system.mem_ctrls_1.memoryStateTime::ACT  480941574834                       # Time in different power states
system.mem_ctrls_1.memoryStateTime::ACT_PDN            0                       # Time in different power states
system.realview.nvmem.pwrStateResidencyTicks::UNDEFINED 3740773469500                       # Cumulative time (in ticks) in various power states
system.realview.vram.pwrStateResidencyTicks::UNDEFINED 3740773469500                       # Cumulative time (in ticks) in various power states
system.pwrStateResidencyTicks::UNDEFINED 3740773469500                       # Cumulative time (in ticks) in various power states
system.bridge.pwrStateResidencyTicks::UNDEFINED 3740773469500                       # Cumulative time (in ticks) in various power states
system.cf0.dma_read_full_pages                      0                       # Number of full page size DMA reads (not PRD).
system.cf0.dma_read_bytes                           0                       # Number of bytes transfered via DMA reads (not PRD).
system.cf0.dma_read_txs                             0                       # Number of DMA read transactions (not PRD).
system.cf0.dma_write_full_pages                  2334                       # Number of full page size DMA writes.
system.cf0.dma_write_bytes                    9636864                       # Number of bytes transfered via DMA writes.
system.cf0.dma_write_txs                         2404                       # Number of DMA write transactions.
system.cpu_voltage_domain.voltage                   1                       # Voltage in Volts
system.cpu_clk_domain.clock                       500                       # Clock period in ticks
system.cpu0.dstage2_mmu.stage2_tlb.walker.pwrStateResidencyTicks::UNDEFINED 3740773469500                       # Cumulative time (in ticks) in various power states
system.cpu0.dstage2_mmu.stage2_tlb.walker.walks            0                       # Table walker walks requested
system.cpu0.dstage2_mmu.stage2_tlb.walker.walkRequestOrigin_Requested::Data            0                       # Table walker requests started/completed, data/inst
system.cpu0.dstage2_mmu.stage2_tlb.walker.walkRequestOrigin_Requested::Inst            0                       # Table walker requests started/completed, data/inst
system.cpu0.dstage2_mmu.stage2_tlb.walker.walkRequestOrigin_Requested::total            0                       # Table walker requests started/completed, data/inst
system.cpu0.dstage2_mmu.stage2_tlb.walker.walkRequestOrigin_Completed::Data            0                       # Table walker requests started/completed, data/inst
system.cpu0.dstage2_mmu.stage2_tlb.walker.walkRequestOrigin_Completed::Inst            0                       # Table walker requests started/completed, data/inst
system.cpu0.dstage2_mmu.stage2_tlb.walker.walkRequestOrigin_Completed::total            0                       # Table walker requests started/completed, data/inst
system.cpu0.dstage2_mmu.stage2_tlb.walker.walkRequestOrigin::total            0                       # Table walker requests started/completed, data/inst
system.cpu0.dstage2_mmu.stage2_tlb.inst_hits            0                       # ITB inst hits
system.cpu0.dstage2_mmu.stage2_tlb.inst_misses            0                       # ITB inst misses
system.cpu0.dstage2_mmu.stage2_tlb.read_hits            0                       # DTB read hits
system.cpu0.dstage2_mmu.stage2_tlb.read_misses            0                       # DTB read misses
system.cpu0.dstage2_mmu.stage2_tlb.write_hits            0                       # DTB write hits
system.cpu0.dstage2_mmu.stage2_tlb.write_misses            0                       # DTB write misses
system.cpu0.dstage2_mmu.stage2_tlb.flush_tlb            0                       # Number of times complete TLB was flushed
system.cpu0.dstage2_mmu.stage2_tlb.flush_tlb_mva            0                       # Number of times TLB was flushed by MVA
system.cpu0.dstage2_mmu.stage2_tlb.flush_tlb_mva_asid            0                       # Number of times TLB was flushed by MVA & ASID
system.cpu0.dstage2_mmu.stage2_tlb.flush_tlb_asid            0                       # Number of times TLB was flushed by ASID
system.cpu0.dstage2_mmu.stage2_tlb.flush_entries            0                       # Number of entries that have been flushed from TLB
system.cpu0.dstage2_mmu.stage2_tlb.align_faults            0                       # Number of TLB faults due to alignment restrictions
system.cpu0.dstage2_mmu.stage2_tlb.prefetch_faults            0                       # Number of TLB faults due to prefetch
system.cpu0.dstage2_mmu.stage2_tlb.domain_faults            0                       # Number of TLB faults due to domain restrictions
system.cpu0.dstage2_mmu.stage2_tlb.perms_faults            0                       # Number of TLB faults due to permissions restrictions
system.cpu0.dstage2_mmu.stage2_tlb.read_accesses            0                       # DTB read accesses
system.cpu0.dstage2_mmu.stage2_tlb.write_accesses            0                       # DTB write accesses
system.cpu0.dstage2_mmu.stage2_tlb.inst_accesses            0                       # ITB inst accesses
system.cpu0.dstage2_mmu.stage2_tlb.hits             0                       # DTB hits
system.cpu0.dstage2_mmu.stage2_tlb.misses            0                       # DTB misses
system.cpu0.dstage2_mmu.stage2_tlb.accesses            0                       # DTB accesses
system.cpu0.dtb.walker.pwrStateResidencyTicks::UNDEFINED 3740773469500                       # Cumulative time (in ticks) in various power states
system.cpu0.dtb.walker.walks                        0                       # Table walker walks requested
system.cpu0.dtb.walker.walkRequestOrigin_Requested::Data            0                       # Table walker requests started/completed, data/inst
system.cpu0.dtb.walker.walkRequestOrigin_Requested::Inst            0                       # Table walker requests started/completed, data/inst
system.cpu0.dtb.walker.walkRequestOrigin_Requested::total            0                       # Table walker requests started/completed, data/inst
system.cpu0.dtb.walker.walkRequestOrigin_Completed::Data            0                       # Table walker requests started/completed, data/inst
system.cpu0.dtb.walker.walkRequestOrigin_Completed::Inst            0                       # Table walker requests started/completed, data/inst
system.cpu0.dtb.walker.walkRequestOrigin_Completed::total            0                       # Table walker requests started/completed, data/inst
system.cpu0.dtb.walker.walkRequestOrigin::total            0                       # Table walker requests started/completed, data/inst
system.cpu0.dtb.inst_hits                           0                       # ITB inst hits
system.cpu0.dtb.inst_misses                         0                       # ITB inst misses
system.cpu0.dtb.read_hits                           0                       # DTB read hits
system.cpu0.dtb.read_misses                         0                       # DTB read misses
system.cpu0.dtb.write_hits                          0                       # DTB write hits
system.cpu0.dtb.write_misses                        0                       # DTB write misses
system.cpu0.dtb.flush_tlb                           0                       # Number of times complete TLB was flushed
system.cpu0.dtb.flush_tlb_mva                       0                       # Number of times TLB was flushed by MVA
system.cpu0.dtb.flush_tlb_mva_asid                  0                       # Number of times TLB was flushed by MVA & ASID
system.cpu0.dtb.flush_tlb_asid                      0                       # Number of times TLB was flushed by ASID
system.cpu0.dtb.flush_entries                       0                       # Number of entries that have been flushed from TLB
system.cpu0.dtb.align_faults                        0                       # Number of TLB faults due to alignment restrictions
system.cpu0.dtb.prefetch_faults                     0                       # Number of TLB faults due to prefetch
system.cpu0.dtb.domain_faults                       0                       # Number of TLB faults due to domain restrictions
system.cpu0.dtb.perms_faults                        0                       # Number of TLB faults due to permissions restrictions
system.cpu0.dtb.read_accesses                       0                       # DTB read accesses
system.cpu0.dtb.write_accesses                      0                       # DTB write accesses
system.cpu0.dtb.inst_accesses                       0                       # ITB inst accesses
system.cpu0.dtb.hits                                0                       # DTB hits
system.cpu0.dtb.misses                              0                       # DTB misses
system.cpu0.dtb.accesses                            0                       # DTB accesses
system.cpu0.istage2_mmu.stage2_tlb.walker.pwrStateResidencyTicks::UNDEFINED 3740773469500                       # Cumulative time (in ticks) in various power states
system.cpu0.istage2_mmu.stage2_tlb.walker.walks            0                       # Table walker walks requested
system.cpu0.istage2_mmu.stage2_tlb.walker.walkRequestOrigin_Requested::Data            0                       # Table walker requests started/completed, data/inst
system.cpu0.istage2_mmu.stage2_tlb.walker.walkRequestOrigin_Requested::Inst            0                       # Table walker requests started/completed, data/inst
system.cpu0.istage2_mmu.stage2_tlb.walker.walkRequestOrigin_Requested::total            0                       # Table walker requests started/completed, data/inst
system.cpu0.istage2_mmu.stage2_tlb.walker.walkRequestOrigin_Completed::Data            0                       # Table walker requests started/completed, data/inst
system.cpu0.istage2_mmu.stage2_tlb.walker.walkRequestOrigin_Completed::Inst            0                       # Table walker requests started/completed, data/inst
system.cpu0.istage2_mmu.stage2_tlb.walker.walkRequestOrigin_Completed::total            0                       # Table walker requests started/completed, data/inst
system.cpu0.istage2_mmu.stage2_tlb.walker.walkRequestOrigin::total            0                       # Table walker requests started/completed, data/inst
system.cpu0.istage2_mmu.stage2_tlb.inst_hits            0                       # ITB inst hits
system.cpu0.istage2_mmu.stage2_tlb.inst_misses            0                       # ITB inst misses
system.cpu0.istage2_mmu.stage2_tlb.read_hits            0                       # DTB read hits
system.cpu0.istage2_mmu.stage2_tlb.read_misses            0                       # DTB read misses
system.cpu0.istage2_mmu.stage2_tlb.write_hits            0                       # DTB write hits
system.cpu0.istage2_mmu.stage2_tlb.write_misses            0                       # DTB write misses
system.cpu0.istage2_mmu.stage2_tlb.flush_tlb            0                       # Number of times complete TLB was flushed
system.cpu0.istage2_mmu.stage2_tlb.flush_tlb_mva            0                       # Number of times TLB was flushed by MVA
system.cpu0.istage2_mmu.stage2_tlb.flush_tlb_mva_asid            0                       # Number of times TLB was flushed by MVA & ASID
system.cpu0.istage2_mmu.stage2_tlb.flush_tlb_asid            0                       # Number of times TLB was flushed by ASID
system.cpu0.istage2_mmu.stage2_tlb.flush_entries            0                       # Number of entries that have been flushed from TLB
system.cpu0.istage2_mmu.stage2_tlb.align_faults            0                       # Number of TLB faults due to alignment restrictions
system.cpu0.istage2_mmu.stage2_tlb.prefetch_faults            0                       # Number of TLB faults due to prefetch
system.cpu0.istage2_mmu.stage2_tlb.domain_faults            0                       # Number of TLB faults due to domain restrictions
system.cpu0.istage2_mmu.stage2_tlb.perms_faults            0                       # Number of TLB faults due to permissions restrictions
system.cpu0.istage2_mmu.stage2_tlb.read_accesses            0                       # DTB read accesses
system.cpu0.istage2_mmu.stage2_tlb.write_accesses            0                       # DTB write accesses
system.cpu0.istage2_mmu.stage2_tlb.inst_accesses            0                       # ITB inst accesses
system.cpu0.istage2_mmu.stage2_tlb.hits             0                       # DTB hits
system.cpu0.istage2_mmu.stage2_tlb.misses            0                       # DTB misses
system.cpu0.istage2_mmu.stage2_tlb.accesses            0                       # DTB accesses
system.cpu0.itb.walker.pwrStateResidencyTicks::UNDEFINED 3740773469500                       # Cumulative time (in ticks) in various power states
system.cpu0.itb.walker.walks                        0                       # Table walker walks requested
system.cpu0.itb.walker.walkRequestOrigin_Requested::Data            0                       # Table walker requests started/completed, data/inst
system.cpu0.itb.walker.walkRequestOrigin_Requested::Inst            0                       # Table walker requests started/completed, data/inst
system.cpu0.itb.walker.walkRequestOrigin_Requested::total            0                       # Table walker requests started/completed, data/inst
system.cpu0.itb.walker.walkRequestOrigin_Completed::Data            0                       # Table walker requests started/completed, data/inst
system.cpu0.itb.walker.walkRequestOrigin_Completed::Inst            0                       # Table walker requests started/completed, data/inst
system.cpu0.itb.walker.walkRequestOrigin_Completed::total            0                       # Table walker requests started/completed, data/inst
system.cpu0.itb.walker.walkRequestOrigin::total            0                       # Table walker requests started/completed, data/inst
system.cpu0.itb.inst_hits                           0                       # ITB inst hits
system.cpu0.itb.inst_misses                         0                       # ITB inst misses
system.cpu0.itb.read_hits                           0                       # DTB read hits
system.cpu0.itb.read_misses                         0                       # DTB read misses
system.cpu0.itb.write_hits                          0                       # DTB write hits
system.cpu0.itb.write_misses                        0                       # DTB write misses
system.cpu0.itb.flush_tlb                           0                       # Number of times complete TLB was flushed
system.cpu0.itb.flush_tlb_mva                       0                       # Number of times TLB was flushed by MVA
system.cpu0.itb.flush_tlb_mva_asid                  0                       # Number of times TLB was flushed by MVA & ASID
system.cpu0.itb.flush_tlb_asid                      0                       # Number of times TLB was flushed by ASID
system.cpu0.itb.flush_entries                       0                       # Number of entries that have been flushed from TLB
system.cpu0.itb.align_faults                        0                       # Number of TLB faults due to alignment restrictions
system.cpu0.itb.prefetch_faults                     0                       # Number of TLB faults due to prefetch
system.cpu0.itb.domain_faults                       0                       # Number of TLB faults due to domain restrictions
system.cpu0.itb.perms_faults                        0                       # Number of TLB faults due to permissions restrictions
system.cpu0.itb.read_accesses                       0                       # DTB read accesses
system.cpu0.itb.write_accesses                      0                       # DTB write accesses
system.cpu0.itb.inst_accesses                       0                       # ITB inst accesses
system.cpu0.itb.hits                                0                       # DTB hits
system.cpu0.itb.misses                              0                       # DTB misses
system.cpu0.itb.accesses                            0                       # DTB accesses
system.cpu0.pwrStateResidencyTicks::ON   504926274000                       # Cumulative time (in ticks) in various power states
system.cpu0.numCycles                               0                       # number of cpu cycles simulated
system.cpu0.numWorkItemsStarted                     0                       # number of work items this cpu started
system.cpu0.numWorkItemsCompleted                   0                       # number of work items this cpu completed
system.cpu0.kern.inst.arm                           0                       # number of arm instructions executed
system.cpu0.kern.inst.quiesce                     236                       # number of quiesce instructions executed
system.cpu0.committedInsts                          0                       # Number of instructions committed
system.cpu0.committedOps                            0                       # Number of ops (including micro ops) committed
system.cpu0.num_int_alu_accesses                    0                       # Number of integer alu accesses
system.cpu0.num_fp_alu_accesses                     0                       # Number of float alu accesses
system.cpu0.num_func_calls                          0                       # number of times a function call or return occured
system.cpu0.num_conditional_control_insts            0                       # number of instructions that are conditional controls
system.cpu0.num_int_insts                           0                       # number of integer instructions
system.cpu0.num_fp_insts                            0                       # number of float instructions
system.cpu0.num_int_register_reads                  0                       # number of times the integer registers were read
system.cpu0.num_int_register_writes                 0                       # number of times the integer registers were written
system.cpu0.num_fp_register_reads                   0                       # number of times the floating registers were read
system.cpu0.num_fp_register_writes                  0                       # number of times the floating registers were written
system.cpu0.num_mem_refs                            0                       # number of memory refs
system.cpu0.num_load_insts                          0                       # Number of load instructions
system.cpu0.num_store_insts                         0                       # Number of store instructions
system.cpu0.num_idle_cycles                         0                       # Number of idle cycles
system.cpu0.num_busy_cycles                         0                       # Number of busy cycles
system.cpu0.not_idle_fraction                       0                       # Percentage of non-idle cycles
system.cpu0.idle_fraction                           1                       # Percentage of idle cycles
system.cpu0.op_class::No_OpClass                    0                       # Class of executed instruction
system.cpu0.op_class::IntAlu                        0                       # Class of executed instruction
system.cpu0.op_class::IntMult                       0                       # Class of executed instruction
system.cpu0.op_class::IntDiv                        0                       # Class of executed instruction
system.cpu0.op_class::FloatAdd                      0                       # Class of executed instruction
system.cpu0.op_class::FloatCmp                      0                       # Class of executed instruction
system.cpu0.op_class::FloatCvt                      0                       # Class of executed instruction
system.cpu0.op_class::FloatMult                     0                       # Class of executed instruction
system.cpu0.op_class::FloatDiv                      0                       # Class of executed instruction
system.cpu0.op_class::FloatSqrt                     0                       # Class of executed instruction
system.cpu0.op_class::SimdAdd                       0                       # Class of executed instruction
system.cpu0.op_class::SimdAddAcc                    0                       # Class of executed instruction
system.cpu0.op_class::SimdAlu                       0                       # Class of executed instruction
system.cpu0.op_class::SimdCmp                       0                       # Class of executed instruction
system.cpu0.op_class::SimdCvt                       0                       # Class of executed instruction
system.cpu0.op_class::SimdMisc                      0                       # Class of executed instruction
system.cpu0.op_class::SimdMult                      0                       # Class of executed instruction
system.cpu0.op_class::SimdMultAcc                   0                       # Class of executed instruction
system.cpu0.op_class::SimdShift                     0                       # Class of executed instruction
system.cpu0.op_class::SimdShiftAcc                  0                       # Class of executed instruction
system.cpu0.op_class::SimdSqrt                      0                       # Class of executed instruction
system.cpu0.op_class::SimdFloatAdd                  0                       # Class of executed instruction
system.cpu0.op_class::SimdFloatAlu                  0                       # Class of executed instruction
system.cpu0.op_class::SimdFloatCmp                  0                       # Class of executed instruction
system.cpu0.op_class::SimdFloatCvt                  0                       # Class of executed instruction
system.cpu0.op_class::SimdFloatDiv                  0                       # Class of executed instruction
system.cpu0.op_class::SimdFloatMisc                 0                       # Class of executed instruction
system.cpu0.op_class::SimdFloatMult                 0                       # Class of executed instruction
system.cpu0.op_class::SimdFloatMultAcc              0                       # Class of executed instruction
system.cpu0.op_class::SimdFloatSqrt                 0                       # Class of executed instruction
system.cpu0.op_class::MemRead                       0                       # Class of executed instruction
system.cpu0.op_class::MemWrite                      0                       # Class of executed instruction
system.cpu0.op_class::IprAccess                     0                       # Class of executed instruction
system.cpu0.op_class::InstPrefetch                  0                       # Class of executed instruction
system.cpu0.op_class::total                         0                       # Class of executed instruction
system.cpu0.dcache.tags.pwrStateResidencyTicks::UNDEFINED 3740773469500                       # Cumulative time (in ticks) in various power states
system.cpu0.dcache.tags.replacements         12134251                       # number of replacements
system.cpu0.dcache.tags.tagsinuse         1021.707273                       # Cycle average of tags in use
system.cpu0.dcache.tags.total_refs          141337484                       # Total number of references to valid blocks.
system.cpu0.dcache.tags.sampled_refs         12135245                       # Sample count of references to valid blocks.
system.cpu0.dcache.tags.avg_refs            11.646859                       # Average number of references to valid blocks.
system.cpu0.dcache.tags.warmup_cycle     3237881810500                       # Cycle when the warmup percentage was hit.
system.cpu0.dcache.tags.occ_blocks::switch_cpus0.data  1021.707273                       # Average occupied blocks per requestor
system.cpu0.dcache.tags.occ_percent::switch_cpus0.data     0.997761                       # Average percentage of cache occupancy
system.cpu0.dcache.tags.occ_percent::total     0.997761                       # Average percentage of cache occupancy
system.cpu0.dcache.tags.occ_task_id_blocks::1024          994                       # Occupied blocks per task id
system.cpu0.dcache.tags.age_task_id_blocks_1024::0           96                       # Occupied blocks per task id
system.cpu0.dcache.tags.age_task_id_blocks_1024::1          593                       # Occupied blocks per task id
system.cpu0.dcache.tags.age_task_id_blocks_1024::2          305                       # Occupied blocks per task id
system.cpu0.dcache.tags.occ_task_id_percent::1024     0.970703                       # Percentage of cache occupancy per task id
system.cpu0.dcache.tags.tag_accesses        350685781                       # Number of tag accesses
system.cpu0.dcache.tags.data_accesses       350685781                       # Number of data accesses
system.cpu0.dcache.pwrStateResidencyTicks::UNDEFINED 3740773469500                       # Cumulative time (in ticks) in various power states
system.cpu0.dcache.ReadReq_hits::switch_cpus0.data     94616923                       # number of ReadReq hits
system.cpu0.dcache.ReadReq_hits::total       94616923                       # number of ReadReq hits
system.cpu0.dcache.WriteReq_hits::switch_cpus0.data     46188204                       # number of WriteReq hits
system.cpu0.dcache.WriteReq_hits::total      46188204                       # number of WriteReq hits
system.cpu0.dcache.SoftPFReq_hits::switch_cpus0.data        35416                       # number of SoftPFReq hits
system.cpu0.dcache.SoftPFReq_hits::total        35416                       # number of SoftPFReq hits
system.cpu0.dcache.LoadLockedReq_hits::switch_cpus0.data       227279                       # number of LoadLockedReq hits
system.cpu0.dcache.LoadLockedReq_hits::total       227279                       # number of LoadLockedReq hits
system.cpu0.dcache.StoreCondReq_hits::switch_cpus0.data       225854                       # number of StoreCondReq hits
system.cpu0.dcache.StoreCondReq_hits::total       225854                       # number of StoreCondReq hits
system.cpu0.dcache.demand_hits::switch_cpus0.data    140805127                       # number of demand (read+write) hits
system.cpu0.dcache.demand_hits::total       140805127                       # number of demand (read+write) hits
system.cpu0.dcache.overall_hits::switch_cpus0.data    140840543                       # number of overall hits
system.cpu0.dcache.overall_hits::total      140840543                       # number of overall hits
system.cpu0.dcache.ReadReq_misses::switch_cpus0.data     26735612                       # number of ReadReq misses
system.cpu0.dcache.ReadReq_misses::total     26735612                       # number of ReadReq misses
system.cpu0.dcache.WriteReq_misses::switch_cpus0.data      1184408                       # number of WriteReq misses
system.cpu0.dcache.WriteReq_misses::total      1184408                       # number of WriteReq misses
system.cpu0.dcache.SoftPFReq_misses::switch_cpus0.data        48788                       # number of SoftPFReq misses
system.cpu0.dcache.SoftPFReq_misses::total        48788                       # number of SoftPFReq misses
system.cpu0.dcache.LoadLockedReq_misses::switch_cpus0.data         4014                       # number of LoadLockedReq misses
system.cpu0.dcache.LoadLockedReq_misses::total         4014                       # number of LoadLockedReq misses
system.cpu0.dcache.StoreCondReq_misses::switch_cpus0.data         4306                       # number of StoreCondReq misses
system.cpu0.dcache.StoreCondReq_misses::total         4306                       # number of StoreCondReq misses
system.cpu0.dcache.demand_misses::switch_cpus0.data     27920020                       # number of demand (read+write) misses
system.cpu0.dcache.demand_misses::total      27920020                       # number of demand (read+write) misses
system.cpu0.dcache.overall_misses::switch_cpus0.data     27968808                       # number of overall misses
system.cpu0.dcache.overall_misses::total     27968808                       # number of overall misses
system.cpu0.dcache.ReadReq_miss_latency::switch_cpus0.data 1402074632000                       # number of ReadReq miss cycles
system.cpu0.dcache.ReadReq_miss_latency::total 1402074632000                       # number of ReadReq miss cycles
system.cpu0.dcache.WriteReq_miss_latency::switch_cpus0.data  28823539021                       # number of WriteReq miss cycles
system.cpu0.dcache.WriteReq_miss_latency::total  28823539021                       # number of WriteReq miss cycles
system.cpu0.dcache.LoadLockedReq_miss_latency::switch_cpus0.data    146906500                       # number of LoadLockedReq miss cycles
system.cpu0.dcache.LoadLockedReq_miss_latency::total    146906500                       # number of LoadLockedReq miss cycles
system.cpu0.dcache.StoreCondReq_miss_latency::switch_cpus0.data     26939500                       # number of StoreCondReq miss cycles
system.cpu0.dcache.StoreCondReq_miss_latency::total     26939500                       # number of StoreCondReq miss cycles
system.cpu0.dcache.StoreCondFailReq_miss_latency::switch_cpus0.data        31500                       # number of StoreCondFailReq miss cycles
system.cpu0.dcache.StoreCondFailReq_miss_latency::total        31500                       # number of StoreCondFailReq miss cycles
system.cpu0.dcache.demand_miss_latency::switch_cpus0.data 1430898171021                       # number of demand (read+write) miss cycles
system.cpu0.dcache.demand_miss_latency::total 1430898171021                       # number of demand (read+write) miss cycles
system.cpu0.dcache.overall_miss_latency::switch_cpus0.data 1430898171021                       # number of overall miss cycles
system.cpu0.dcache.overall_miss_latency::total 1430898171021                       # number of overall miss cycles
system.cpu0.dcache.ReadReq_accesses::switch_cpus0.data    121352535                       # number of ReadReq accesses(hits+misses)
system.cpu0.dcache.ReadReq_accesses::total    121352535                       # number of ReadReq accesses(hits+misses)
system.cpu0.dcache.WriteReq_accesses::switch_cpus0.data     47372612                       # number of WriteReq accesses(hits+misses)
system.cpu0.dcache.WriteReq_accesses::total     47372612                       # number of WriteReq accesses(hits+misses)
system.cpu0.dcache.SoftPFReq_accesses::switch_cpus0.data        84204                       # number of SoftPFReq accesses(hits+misses)
system.cpu0.dcache.SoftPFReq_accesses::total        84204                       # number of SoftPFReq accesses(hits+misses)
system.cpu0.dcache.LoadLockedReq_accesses::switch_cpus0.data       231293                       # number of LoadLockedReq accesses(hits+misses)
system.cpu0.dcache.LoadLockedReq_accesses::total       231293                       # number of LoadLockedReq accesses(hits+misses)
system.cpu0.dcache.StoreCondReq_accesses::switch_cpus0.data       230160                       # number of StoreCondReq accesses(hits+misses)
system.cpu0.dcache.StoreCondReq_accesses::total       230160                       # number of StoreCondReq accesses(hits+misses)
system.cpu0.dcache.demand_accesses::switch_cpus0.data    168725147                       # number of demand (read+write) accesses
system.cpu0.dcache.demand_accesses::total    168725147                       # number of demand (read+write) accesses
system.cpu0.dcache.overall_accesses::switch_cpus0.data    168809351                       # number of overall (read+write) accesses
system.cpu0.dcache.overall_accesses::total    168809351                       # number of overall (read+write) accesses
system.cpu0.dcache.ReadReq_miss_rate::switch_cpus0.data     0.220314                       # miss rate for ReadReq accesses
system.cpu0.dcache.ReadReq_miss_rate::total     0.220314                       # miss rate for ReadReq accesses
system.cpu0.dcache.WriteReq_miss_rate::switch_cpus0.data     0.025002                       # miss rate for WriteReq accesses
system.cpu0.dcache.WriteReq_miss_rate::total     0.025002                       # miss rate for WriteReq accesses
system.cpu0.dcache.SoftPFReq_miss_rate::switch_cpus0.data     0.579402                       # miss rate for SoftPFReq accesses
system.cpu0.dcache.SoftPFReq_miss_rate::total     0.579402                       # miss rate for SoftPFReq accesses
system.cpu0.dcache.LoadLockedReq_miss_rate::switch_cpus0.data     0.017355                       # miss rate for LoadLockedReq accesses
system.cpu0.dcache.LoadLockedReq_miss_rate::total     0.017355                       # miss rate for LoadLockedReq accesses
system.cpu0.dcache.StoreCondReq_miss_rate::switch_cpus0.data     0.018709                       # miss rate for StoreCondReq accesses
system.cpu0.dcache.StoreCondReq_miss_rate::total     0.018709                       # miss rate for StoreCondReq accesses
system.cpu0.dcache.demand_miss_rate::switch_cpus0.data     0.165476                       # miss rate for demand accesses
system.cpu0.dcache.demand_miss_rate::total     0.165476                       # miss rate for demand accesses
system.cpu0.dcache.overall_miss_rate::switch_cpus0.data     0.165683                       # miss rate for overall accesses
system.cpu0.dcache.overall_miss_rate::total     0.165683                       # miss rate for overall accesses
system.cpu0.dcache.ReadReq_avg_miss_latency::switch_cpus0.data 52442.211983                       # average ReadReq miss latency
system.cpu0.dcache.ReadReq_avg_miss_latency::total 52442.211983                       # average ReadReq miss latency
system.cpu0.dcache.WriteReq_avg_miss_latency::switch_cpus0.data 24335.819262                       # average WriteReq miss latency
system.cpu0.dcache.WriteReq_avg_miss_latency::total 24335.819262                       # average WriteReq miss latency
system.cpu0.dcache.LoadLockedReq_avg_miss_latency::switch_cpus0.data 36598.530144                       # average LoadLockedReq miss latency
system.cpu0.dcache.LoadLockedReq_avg_miss_latency::total 36598.530144                       # average LoadLockedReq miss latency
system.cpu0.dcache.StoreCondReq_avg_miss_latency::switch_cpus0.data  6256.270320                       # average StoreCondReq miss latency
system.cpu0.dcache.StoreCondReq_avg_miss_latency::total  6256.270320                       # average StoreCondReq miss latency
system.cpu0.dcache.StoreCondFailReq_avg_miss_latency::switch_cpus0.data          inf                       # average StoreCondFailReq miss latency
system.cpu0.dcache.StoreCondFailReq_avg_miss_latency::total          inf                       # average StoreCondFailReq miss latency
system.cpu0.dcache.demand_avg_miss_latency::switch_cpus0.data 51249.897780                       # average overall miss latency
system.cpu0.dcache.demand_avg_miss_latency::total 51249.897780                       # average overall miss latency
system.cpu0.dcache.overall_avg_miss_latency::switch_cpus0.data 51160.498904                       # average overall miss latency
system.cpu0.dcache.overall_avg_miss_latency::total 51160.498904                       # average overall miss latency
system.cpu0.dcache.blocked_cycles::no_mshrs       949151                       # number of cycles access was blocked
system.cpu0.dcache.blocked_cycles::no_targets     36263695                       # number of cycles access was blocked
system.cpu0.dcache.blocked::no_mshrs            18733                       # number of cycles access was blocked
system.cpu0.dcache.blocked::no_targets         346766                       # number of cycles access was blocked
system.cpu0.dcache.avg_blocked_cycles::no_mshrs    50.667325                       # average number of cycles each access was blocked
system.cpu0.dcache.avg_blocked_cycles::no_targets   104.576847                       # average number of cycles each access was blocked
system.cpu0.dcache.writebacks::writebacks     12134251                       # number of writebacks
system.cpu0.dcache.writebacks::total         12134251                       # number of writebacks
system.cpu0.dcache.ReadReq_mshr_hits::switch_cpus0.data     14904616                       # number of ReadReq MSHR hits
system.cpu0.dcache.ReadReq_mshr_hits::total     14904616                       # number of ReadReq MSHR hits
system.cpu0.dcache.WriteReq_mshr_hits::switch_cpus0.data       897353                       # number of WriteReq MSHR hits
[...]
system.switch_cpus3.commit.op_class_0::SimdFloatAlu            0      0.00%     64.73% # Class of committed instruction
system.switch_cpus3.commit.op_class_0::SimdFloatCmp            5      0.00%     64.73% # Class of committed instruction
system.switch_cpus3.commit.op_class_0::SimdFloatCvt            4      0.00%     64.73% # Class of committed instruction
system.switch_cpus3.commit.op_class_0::SimdFloatDiv            0      0.00%     64.73% # Class of committed instruction
system.switch_cpus3.commit.op_class_0::SimdFloatMisc          790      0.00%     64.73% # Class of committed instruction
system.switch_cpus3.commit.op_class_0::SimdFloatMult            2      0.00%     64.73% # Class of committed instruction
system.switch_cpus3.commit.op_class_0::SimdFloatMultAcc            0      0.00%     64.73% # Class of committed instruction
system.switch_cpus3.commit.op_class_0::SimdFloatSqrt            0      0.00%     64.73% # Class of committed instruction
system.switch_cpus3.commit.op_class_0::MemRead    202301918     17.76%     82.49% # Class of committed instruction
system.switch_cpus3.commit.op_class_0::MemWrite    199398006     17.51%    100.00% # Class of committed instruction
system.switch_cpus3.commit.op_class_0::IprAccess            0      0.00%    100.00% # Class of committed instruction
system.switch_cpus3.commit.op_class_0::InstPrefetch            0      0.00%    100.00% # Class of committed instruction
system.switch_cpus3.commit.op_class_0::total   1138908423                       # Class of committed instruction
system.switch_cpus3.commit.bw_lim_events     26301448                       # number cycles where commit BW limit reached
system.switch_cpus3.rob.rob_reads          2042920182                       # The number of ROB reads
system.switch_cpus3.rob.rob_writes         2469732653                       # The number of ROB writes
system.switch_cpus3.timesIdled                 942173                       # Number of times that the entire CPU went into an idle state and unscheduled itself
system.switch_cpus3.idleCycles              139459554                       # Total number of cycles that the CPU has spent unscheduled due to idling
system.switch_cpus3.quiesceCycles             9130874                       # Total number of cycles that CPU has spent quiesced or waiting for an interrupt
system.switch_cpus3.committedInsts          914760062                       # Number of Instructions Simulated
system.switch_cpus3.committedOps           1138874162                       # Number of Ops (including micro ops) Simulated
system.switch_cpus3.cpi                      1.092450                       # CPI: Cycles Per Instruction
system.switch_cpus3.cpi_total                1.092450                       # CPI: Total CPI of All Threads
system.switch_cpus3.ipc                      0.915374                       # IPC: Instructions Per Cycle
system.switch_cpus3.ipc_total                0.915374                       # IPC: Total IPC of All Threads
system.switch_cpus3.int_regfile_reads      1331350917                       # number of integer regfile reads
system.switch_cpus3.int_regfile_writes      685934229                       # number of integer regfile writes
system.switch_cpus3.fp_regfile_reads             3932                       # number of floating regfile reads
system.switch_cpus3.fp_regfile_writes            2398                       # number of floating regfile writes
system.switch_cpus3.cc_regfile_reads       4160518521                       # number of cc regfile reads
system.switch_cpus3.cc_regfile_writes       656946873                       # number of cc regfile writes
system.switch_cpus3.misc_regfile_reads     2118978265                       # number of misc regfile reads
system.switch_cpus3.misc_regfile_writes       3868455                       # number of misc regfile writes
system.tol2bus.snoop_filter.tot_requests     67949733                       # Total number of requests made to the snoop filter.
system.tol2bus.snoop_filter.hit_single_requests     33738713                       # Number of requests hitting in the snoop filter with a single holder of the requested data.
system.tol2bus.snoop_filter.hit_multi_requests      2066791                       # Number of requests hitting in the snoop filter with multiple (>1) holders of the requested data.
system.tol2bus.snoop_filter.tot_snoops         106317                       # Total number of snoops made to the snoop filter.
system.tol2bus.snoop_filter.hit_single_snoops       102016                       # Number of snoops hitting in the snoop filter with a single holder of the requested data.
system.tol2bus.snoop_filter.hit_multi_snoops         4301                       # Number of snoops hitting in the snoop filter with multiple (>1) holders of the requested data.
system.tol2bus.pwrStateResidencyTicks::UNDEFINED 3740773469500                       # Cumulative time (in ticks) in various power states
system.tol2bus.trans_dist::ReadReq               4506                       # Transaction distribution
system.tol2bus.trans_dist::ReadResp          26550181                       # Transaction distribution
system.tol2bus.trans_dist::WriteReq              5418                       # Transaction distribution
system.tol2bus.trans_dist::WriteResp             5418                       # Transaction distribution
system.tol2bus.trans_dist::WritebackDirty     20419308                       # Transaction distribution
system.tol2bus.trans_dist::WritebackClean     21921111                       # Transaction distribution
system.tol2bus.trans_dist::CleanEvict         3784444                       # Transaction distribution
system.tol2bus.trans_dist::HardPFReq         10063950                       # Transaction distribution
system.tol2bus.trans_dist::UpgradeReq          132938                       # Transaction distribution
system.tol2bus.trans_dist::SCUpgradeReq         16408                       # Transaction distribution
system.tol2bus.trans_dist::UpgradeResp         149346                       # Transaction distribution
system.tol2bus.trans_dist::SCUpgradeFailReq            7                       # Transaction distribution
system.tol2bus.trans_dist::UpgradeFailResp            7                       # Transaction distribution
system.tol2bus.trans_dist::ReadExReq          7439990                       # Transaction distribution
system.tol2bus.trans_dist::ReadExResp         7439990                       # Transaction distribution
system.tol2bus.trans_dist::ReadCleanReq      13260600                       # Transaction distribution
system.tol2bus.trans_dist::ReadSharedReq     13285098                       # Transaction distribution
system.tol2bus.trans_dist::InvalidateReq         6026                       # Transaction distribution
system.tol2bus.pkt_count_system.cpu0.icache.mem_side::system.l2.cpu_side       954300                       # Packet count per connected master and slave (bytes)
system.tol2bus.pkt_count_system.cpu0.dcache.mem_side::system.l2.cpu_side     36439684                       # Packet count per connected master and slave (bytes)
system.tol2bus.pkt_count_system.cpu0.itb_walker_cache.mem_side::system.l2.cpu_side         2288                       # Packet count per connected master and slave (bytes)
system.tol2bus.pkt_count_system.cpu0.dtb_walker_cache.mem_side::system.l2.cpu_side      4493967                       # Packet count per connected master and slave (bytes)
system.tol2bus.pkt_count_system.cpu1.icache.mem_side::system.l2.cpu_side      6793614                       # Packet count per connected master and slave (bytes)
system.tol2bus.pkt_count_system.cpu1.dcache.mem_side::system.l2.cpu_side       996808                       # Packet count per connected master and slave (bytes)
system.tol2bus.pkt_count_system.cpu1.itb_walker_cache.mem_side::system.l2.cpu_side        10154                       # Packet count per connected master and slave (bytes)
system.tol2bus.pkt_count_system.cpu1.dtb_walker_cache.mem_side::system.l2.cpu_side        27849                       # Packet count per connected master and slave (bytes)
system.tol2bus.pkt_count_system.cpu2.icache.mem_side::system.l2.cpu_side      5505555                       # Packet count per connected master and slave (bytes)
system.tol2bus.pkt_count_system.cpu2.dcache.mem_side::system.l2.cpu_side     23524595                       # Packet count per connected master and slave (bytes)
system.tol2bus.pkt_count_system.cpu2.itb_walker_cache.mem_side::system.l2.cpu_side         3354                       # Packet count per connected master and slave (bytes)
system.tol2bus.pkt_count_system.cpu2.dtb_walker_cache.mem_side::system.l2.cpu_side       167863                       # Packet count per connected master and slave (bytes)
system.tol2bus.pkt_count_system.cpu3.icache.mem_side::system.l2.cpu_side     21529548                       # Packet count per connected master and slave (bytes)
system.tol2bus.pkt_count_system.cpu3.dcache.mem_side::system.l2.cpu_side      1428190                       # Packet count per connected master and slave (bytes)
system.tol2bus.pkt_count_system.cpu3.itb_walker_cache.mem_side::system.l2.cpu_side         5020                       # Packet count per connected master and slave (bytes)
system.tol2bus.pkt_count_system.cpu3.dtb_walker_cache.mem_side::system.l2.cpu_side        17212                       # Packet count per connected master and slave (bytes)
system.tol2bus.pkt_count::total             101900001                       # Packet count per connected master and slave (bytes)
system.tol2bus.pkt_size_system.cpu0.icache.mem_side::system.l2.cpu_side     40715520                       # Cumulative packet size per connected master and slave (bytes)
system.tol2bus.pkt_size_system.cpu0.dcache.mem_side::system.l2.cpu_side   1553041807                       # Cumulative packet size per connected master and slave (bytes)
system.tol2bus.pkt_size_system.cpu0.itb_walker_cache.mem_side::system.l2.cpu_side        66112                       # Cumulative packet size per connected master and slave (bytes)
system.tol2bus.pkt_size_system.cpu0.dtb_walker_cache.mem_side::system.l2.cpu_side    191630592                       # Cumulative packet size per connected master and slave (bytes)
system.tol2bus.pkt_size_system.cpu1.icache.mem_side::system.l2.cpu_side    289860544                       # Cumulative packet size per connected master and slave (bytes)
system.tol2bus.pkt_size_system.cpu1.dcache.mem_side::system.l2.cpu_side     41387689                       # Cumulative packet size per connected master and slave (bytes)
system.tol2bus.pkt_size_system.cpu1.itb_walker_cache.mem_side::system.l2.cpu_side       357568                       # Cumulative packet size per connected master and slave (bytes)
system.tol2bus.pkt_size_system.cpu1.dtb_walker_cache.mem_side::system.l2.cpu_side      1049152                       # Cumulative packet size per connected master and slave (bytes)
system.tol2bus.pkt_size_system.cpu2.icache.mem_side::system.l2.cpu_side    234903040                       # Cumulative packet size per connected master and slave (bytes)
system.tol2bus.pkt_size_system.cpu2.dcache.mem_side::system.l2.cpu_side    993275488                       # Cumulative packet size per connected master and slave (bytes)
system.tol2bus.pkt_size_system.cpu2.itb_walker_cache.mem_side::system.l2.cpu_side        84224                       # Cumulative packet size per connected master and slave (bytes)
system.tol2bus.pkt_size_system.cpu2.dtb_walker_cache.mem_side::system.l2.cpu_side      1996800                       # Cumulative packet size per connected master and slave (bytes)
system.tol2bus.pkt_size_system.cpu3.icache.mem_side::system.l2.cpu_side    918593664                       # Cumulative packet size per connected master and slave (bytes)
system.tol2bus.pkt_size_system.cpu3.dcache.mem_side::system.l2.cpu_side     60041461                       # Cumulative packet size per connected master and slave (bytes)
system.tol2bus.pkt_size_system.cpu3.itb_walker_cache.mem_side::system.l2.cpu_side       139776                       # Cumulative packet size per connected master and slave (bytes)
system.tol2bus.pkt_size_system.cpu3.dtb_walker_cache.mem_side::system.l2.cpu_side       610944                       # Cumulative packet size per connected master and slave (bytes)
system.tol2bus.pkt_size::total             4327754381                       # Cumulative packet size per connected master and slave (bytes)
system.tol2bus.snoops                        22585766                       # Total snoops (count)
system.tol2bus.snoopTraffic                 557200000                       # Total snoop traffic (bytes)
system.tol2bus.snoop_fanout::samples         56528820                       # Request fanout histogram
system.tol2bus.snoop_fanout::mean            0.042978                       # Request fanout histogram
system.tol2bus.snoop_fanout::stdev           0.237449                       # Request fanout histogram
system.tol2bus.snoop_fanout::underflows             0      0.00%      0.00% # Request fanout histogram
system.tol2bus.snoop_fanout::0               54432982     96.29%     96.29% # Request fanout histogram
system.tol2bus.snoop_fanout::1                1839270      3.25%     99.55% # Request fanout histogram
system.tol2bus.snoop_fanout::2                 192316      0.34%     99.89% # Request fanout histogram
system.tol2bus.snoop_fanout::3                  56938      0.10%     99.99% # Request fanout histogram
system.tol2bus.snoop_fanout::4                   3574      0.01%     99.99% # Request fanout histogram
system.tol2bus.snoop_fanout::5                   2305      0.00%    100.00% # Request fanout histogram
system.tol2bus.snoop_fanout::6                   1114      0.00%    100.00% # Request fanout histogram
system.tol2bus.snoop_fanout::7                    321      0.00%    100.00% # Request fanout histogram
system.tol2bus.snoop_fanout::8                      0      0.00%    100.00% # Request fanout histogram
system.tol2bus.snoop_fanout::9                      0      0.00%    100.00% # Request fanout histogram
system.tol2bus.snoop_fanout::10                     0      0.00%    100.00% # Request fanout histogram
system.tol2bus.snoop_fanout::11                     0      0.00%    100.00% # Request fanout histogram
system.tol2bus.snoop_fanout::12                     0      0.00%    100.00% # Request fanout histogram
system.tol2bus.snoop_fanout::13                     0      0.00%    100.00% # Request fanout histogram
system.tol2bus.snoop_fanout::14                     0      0.00%    100.00% # Request fanout histogram
system.tol2bus.snoop_fanout::15                     0      0.00%    100.00% # Request fanout histogram
system.tol2bus.snoop_fanout::16                     0      0.00%    100.00% # Request fanout histogram
system.tol2bus.snoop_fanout::overflows              0      0.00%    100.00% # Request fanout histogram
system.tol2bus.snoop_fanout::min_value              0                       # Request fanout histogram
system.tol2bus.snoop_fanout::max_value              7                       # Request fanout histogram
system.tol2bus.snoop_fanout::total           56528820                       # Request fanout histogram
system.tol2bus.reqLayer0.occupancy        67796683555                       # Layer occupancy (ticks)
system.tol2bus.reqLayer0.utilization             13.4                       # Layer utilization (%)
system.tol2bus.snoopLayer0.occupancy          1626311                       # Layer occupancy (ticks)
system.tol2bus.snoopLayer0.utilization            0.0                       # Layer utilization (%)
system.tol2bus.respLayer0.occupancy         479470878                       # Layer occupancy (ticks)
system.tol2bus.respLayer0.utilization             0.1                       # Layer utilization (%)
system.tol2bus.respLayer1.occupancy       18285805330                       # Layer occupancy (ticks)
system.tol2bus.respLayer1.utilization             3.6                       # Layer utilization (%)
system.tol2bus.respLayer2.occupancy           1890484                       # Layer occupancy (ticks)
system.tol2bus.respLayer2.utilization             0.0                       # Layer utilization (%)
system.tol2bus.respLayer3.occupancy        2251438809                       # Layer occupancy (ticks)
system.tol2bus.respLayer3.utilization             0.4                       # Layer utilization (%)
system.tol2bus.respLayer4.occupancy        3402027090                       # Layer occupancy (ticks)
system.tol2bus.respLayer4.utilization             0.7                       # Layer utilization (%)
system.tol2bus.respLayer5.occupancy         508523480                       # Layer occupancy (ticks)
system.tol2bus.respLayer5.utilization             0.1                       # Layer utilization (%)
system.tol2bus.respLayer6.occupancy           6893913                       # Layer occupancy (ticks)
system.tol2bus.respLayer6.utilization             0.0                       # Layer utilization (%)
system.tol2bus.respLayer7.occupancy          17279807                       # Layer occupancy (ticks)
system.tol2bus.respLayer7.utilization             0.0                       # Layer utilization (%)
system.tol2bus.respLayer8.occupancy        2758839350                       # Layer occupancy (ticks)
system.tol2bus.respLayer8.utilization             0.5                       # Layer utilization (%)
system.tol2bus.respLayer9.occupancy       11740172496                       # Layer occupancy (ticks)
system.tol2bus.respLayer9.utilization             2.3                       # Layer utilization (%)
system.tol2bus.respLayer10.occupancy          3063985                       # Layer occupancy (ticks)
system.tol2bus.respLayer10.utilization            0.0                       # Layer utilization (%)
system.tol2bus.respLayer11.occupancy        205129229                       # Layer occupancy (ticks)
system.tol2bus.respLayer11.utilization            0.0                       # Layer utilization (%)
system.tol2bus.respLayer12.occupancy      10782280237                       # Layer occupancy (ticks)
system.tol2bus.respLayer12.utilization            2.1                       # Layer utilization (%)
system.tol2bus.respLayer13.occupancy        723848072                       # Layer occupancy (ticks)
system.tol2bus.respLayer13.utilization            0.1                       # Layer utilization (%)
system.tol2bus.respLayer14.occupancy          4266974                       # Layer occupancy (ticks)
system.tol2bus.respLayer14.utilization            0.0                       # Layer utilization (%)
system.tol2bus.respLayer15.occupancy         11532432                       # Layer occupancy (ticks)
system.tol2bus.respLayer15.utilization            0.0                       # Layer utilization (%)
system.switch_cpus0.kern.inst.arm                   0                       # number of arm instructions executed
system.switch_cpus0.kern.inst.quiesce               0                       # number of quiesce instructions executed
system.switch_cpus1.kern.inst.arm                   0                       # number of arm instructions executed
system.switch_cpus1.kern.inst.quiesce               0                       # number of quiesce instructions executed
system.switch_cpus2.kern.inst.arm                   0                       # number of arm instructions executed
system.switch_cpus2.kern.inst.quiesce               0                       # number of quiesce instructions executed
system.switch_cpus3.kern.inst.arm                   0                       # number of arm instructions executed
system.switch_cpus3.kern.inst.quiesce               0                       # number of quiesce instructions executed

---------- End Simulation Statistics   ----------
