
---------- Begin Simulation Statistics ----------
sim_seconds                                  0.504612                       # Number of seconds simulated
sim_ticks                                504612459500                       # Number of ticks simulated
final_tick                               3741162140500                       # Number of ticks from beginning of simulation (restored from checkpoints and never reset)
sim_freq                                 1000000000000                       # Frequency of simulated ticks
host_inst_rate                                 106203                       # Simulator instruction rate (inst/s)
host_op_rate                                   126398                       # Simulator op (including micro ops) rate (op/s)
host_tick_rate                               17166707                       # Simulator tick rate (ticks/s)
host_mem_usage                                2659600                       # Number of bytes of host memory used
host_seconds                                 29394.83                       # Real time elapsed on the host
sim_insts                                  3121809829                       # Number of instructions simulated
sim_ops                                    3715453092                       # Number of ops (including micro ops) simulated
system.voltage_domain.voltage                       1                       # Voltage in Volts
system.clk_domain.clock                          1000                       # Clock period in ticks
system.mem_ctrls.pwrStateResidencyTicks::UNDEFINED 3741162140500                       # Cumulative time (in ticks) in various power states
system.mem_ctrls.bytes_read::l2.prefetcher    463833536                       # Number of bytes read from this memory
system.mem_ctrls.bytes_read::switch_cpus0.dtb.walker      4507392                       # Number of bytes read from this memory
system.mem_ctrls.bytes_read::switch_cpus0.itb.walker        26496                       # Number of bytes read from this memory
system.mem_ctrls.bytes_read::switch_cpus0.inst     11740736                       # Number of bytes read from this memory
system.mem_ctrls.bytes_read::switch_cpus0.data    246811904                       # Number of bytes read from this memory
system.mem_ctrls.bytes_read::switch_cpus1.dtb.walker       245568                       # Number of bytes read from this memory
system.mem_ctrls.bytes_read::switch_cpus1.itb.walker        87424                       # Number of bytes read from this memory
system.mem_ctrls.bytes_read::switch_cpus1.inst     15506496                       # Number of bytes read from this memory
system.mem_ctrls.bytes_read::switch_cpus1.data      5981504                       # Number of bytes read from this memory
system.mem_ctrls.bytes_read::switch_cpus2.dtb.walker       480256                       # Number of bytes read from this memory
system.mem_ctrls.bytes_read::switch_cpus2.itb.walker        24640                       # Number of bytes read from this memory
system.mem_ctrls.bytes_read::switch_cpus2.inst     24042752                       # Number of bytes read from this memory
system.mem_ctrls.bytes_read::switch_cpus2.data     52331456                       # Number of bytes read from this memory
system.mem_ctrls.bytes_read::switch_cpus3.dtb.walker       161472                       # Number of bytes read from this memory
system.mem_ctrls.bytes_read::switch_cpus3.itb.walker        42624                       # Number of bytes read from this memory
system.mem_ctrls.bytes_read::switch_cpus3.inst     39129536                       # Number of bytes read from this memory
system.mem_ctrls.bytes_read::switch_cpus3.data      7316288                       # Number of bytes read from this memory
system.mem_ctrls.bytes_read::total          872270080                       # Number of bytes read from this memory
system.mem_ctrls.bytes_inst_read::switch_cpus0.inst     11740736                       # Number of instructions bytes read from this memory
system.mem_ctrls.bytes_inst_read::switch_cpus1.inst     15506496                       # Number of instructions bytes read from this memory
system.mem_ctrls.bytes_inst_read::switch_cpus2.inst     24042752                       # Number of instructions bytes read from this memory
system.mem_ctrls.bytes_inst_read::switch_cpus3.inst     39129536                       # Number of instructions bytes read from this memory
system.mem_ctrls.bytes_inst_read::total      90419520                       # Number of instructions bytes read from this memory
system.mem_ctrls.bytes_written::writebacks    555068224                       # Number of bytes written to this memory
system.mem_ctrls.bytes_written::total       555068224                       # Number of bytes written to this memory
system.mem_ctrls.num_reads::l2.prefetcher      7247399                       # Number of read requests responded to by this memory
system.mem_ctrls.num_reads::switch_cpus0.dtb.walker        70428                       # Number of read requests responded to by this memory
system.mem_ctrls.num_reads::switch_cpus0.itb.walker          414                       # Number of read requests responded to by this memory
system.mem_ctrls.num_reads::switch_cpus0.inst       183449                       # Number of read requests responded to by this memory
system.mem_ctrls.num_reads::switch_cpus0.data      3856436                       # Number of read requests responded to by this memory
system.mem_ctrls.num_reads::switch_cpus1.dtb.walker         3837                       # Number of read requests responded to by this memory
system.mem_ctrls.num_reads::switch_cpus1.itb.walker         1366                       # Number of read requests responded to by this memory
system.mem_ctrls.num_reads::switch_cpus1.inst       242289                       # Number of read requests responded to by this memory
system.mem_ctrls.num_reads::switch_cpus1.data        93461                       # Number of read requests responded to by this memory
system.mem_ctrls.num_reads::switch_cpus2.dtb.walker         7504                       # Number of read requests responded to by this memory
system.mem_ctrls.num_reads::switch_cpus2.itb.walker          385                       # Number of read requests responded to by this memory
system.mem_ctrls.num_reads::switch_cpus2.inst       375668                       # Number of read requests responded to by this memory
system.mem_ctrls.num_reads::switch_cpus2.data       817679                       # Number of read requests responded to by this memory
system.mem_ctrls.num_reads::switch_cpus3.dtb.walker         2523                       # Number of read requests responded to by this memory
system.mem_ctrls.num_reads::switch_cpus3.itb.walker          666                       # Number of read requests responded to by this memory
system.mem_ctrls.num_reads::switch_cpus3.inst       611399                       # Number of read requests responded to by this memory
system.mem_ctrls.num_reads::switch_cpus3.data       114317                       # Number of read requests responded to by this memory
system.mem_ctrls.num_reads::total            13629220                       # Number of read requests responded to by this memory
system.mem_ctrls.num_writes::writebacks       8672941                       # Number of write requests responded to by this memory
system.mem_ctrls.num_writes::total            8672941                       # Number of write requests responded to by this memory
system.mem_ctrls.bw_read::l2.prefetcher     919187640                       # Total read bandwidth from this memory (bytes/s)
system.mem_ctrls.bw_read::switch_cpus0.dtb.walker      8932383                       # Total read bandwidth from this memory (bytes/s)
system.mem_ctrls.bw_read::switch_cpus0.itb.walker        52508                       # Total read bandwidth from this memory (bytes/s)
system.mem_ctrls.bw_read::switch_cpus0.inst     23266837                       # Total read bandwidth from this memory (bytes/s)
system.mem_ctrls.bw_read::switch_cpus0.data    489111791                       # Total read bandwidth from this memory (bytes/s)
system.mem_ctrls.bw_read::switch_cpus1.dtb.walker       486647                       # Total read bandwidth from this memory (bytes/s)
system.mem_ctrls.bw_read::switch_cpus1.itb.walker       173250                       # Total read bandwidth from this memory (bytes/s)
system.mem_ctrls.bw_read::switch_cpus1.inst     30729515                       # Total read bandwidth from this memory (bytes/s)
system.mem_ctrls.bw_read::switch_cpus1.data     11853659                       # Total read bandwidth from this memory (bytes/s)
system.mem_ctrls.bw_read::switch_cpus2.dtb.walker       951732                       # Total read bandwidth from this memory (bytes/s)
system.mem_ctrls.bw_read::switch_cpus2.itb.walker        48830                       # Total read bandwidth from this memory (bytes/s)
system.mem_ctrls.bw_read::switch_cpus2.inst     47645974                       # Total read bandwidth from this memory (bytes/s)
system.mem_ctrls.bw_read::switch_cpus2.data    103706230                       # Total read bandwidth from this memory (bytes/s)
system.mem_ctrls.bw_read::switch_cpus3.dtb.walker       319992                       # Total read bandwidth from this memory (bytes/s)
system.mem_ctrls.bw_read::switch_cpus3.itb.walker        84469                       # Total read bandwidth from this memory (bytes/s)
system.mem_ctrls.bw_read::switch_cpus3.inst     77543737                       # Total read bandwidth from this memory (bytes/s)
system.mem_ctrls.bw_read::switch_cpus3.data     14498826                       # Total read bandwidth from this memory (bytes/s)
system.mem_ctrls.bw_read::total            1728594020                       # Total read bandwidth from this memory (bytes/s)
system.mem_ctrls.bw_inst_read::switch_cpus0.inst     23266837                       # Instruction read bandwidth from this memory (bytes/s)
system.mem_ctrls.bw_inst_read::switch_cpus1.inst     30729515                       # Instruction read bandwidth from this memory (bytes/s)
system.mem_ctrls.bw_inst_read::switch_cpus2.inst     47645974                       # Instruction read bandwidth from this memory (bytes/s)
system.mem_ctrls.bw_inst_read::switch_cpus3.inst     77543737                       # Instruction read bandwidth from this memory (bytes/s)
system.mem_ctrls.bw_inst_read::total        179186063                       # Instruction read bandwidth from this memory (bytes/s)
system.mem_ctrls.bw_write::writebacks      1099989137                       # Write bandwidth from this memory (bytes/s)
system.mem_ctrls.bw_write::total           1099989137                       # Write bandwidth from this memory (bytes/s)
system.mem_ctrls.bw_total::writebacks      1099989137                       # Total bandwidth to/from this memory (bytes/s)
system.mem_ctrls.bw_total::l2.prefetcher    919187640                       # Total bandwidth to/from this memory (bytes/s)
system.mem_ctrls.bw_total::switch_cpus0.dtb.walker      8932383                       # Total bandwidth to/from this memory (bytes/s)
system.mem_ctrls.bw_total::switch_cpus0.itb.walker        52508                       # Total bandwidth to/from this memory (bytes/s)
system.mem_ctrls.bw_total::switch_cpus0.inst     23266837                       # Total bandwidth to/from this memory (bytes/s)
system.mem_ctrls.bw_total::switch_cpus0.data    489111791                       # Total bandwidth to/from this memory (bytes/s)
system.mem_ctrls.bw_total::switch_cpus1.dtb.walker       486647                       # Total bandwidth to/from this memory (bytes/s)
system.mem_ctrls.bw_total::switch_cpus1.itb.walker       173250                       # Total bandwidth to/from this memory (bytes/s)
system.mem_ctrls.bw_total::switch_cpus1.inst     30729515                       # Total bandwidth to/from this memory (bytes/s)
system.mem_ctrls.bw_total::switch_cpus1.data     11853659                       # Total bandwidth to/from this memory (bytes/s)
system.mem_ctrls.bw_total::switch_cpus2.dtb.walker       951732                       # Total bandwidth to/from this memory (bytes/s)
system.mem_ctrls.bw_total::switch_cpus2.itb.walker        48830                       # Total bandwidth to/from this memory (bytes/s)
system.mem_ctrls.bw_total::switch_cpus2.inst     47645974                       # Total bandwidth to/from this memory (bytes/s)
system.mem_ctrls.bw_total::switch_cpus2.data    103706230                       # Total bandwidth to/from this memory (bytes/s)
system.mem_ctrls.bw_total::switch_cpus3.dtb.walker       319992                       # Total bandwidth to/from this memory (bytes/s)
system.mem_ctrls.bw_total::switch_cpus3.itb.walker        84469                       # Total bandwidth to/from this memory (bytes/s)
system.mem_ctrls.bw_total::switch_cpus3.inst     77543737                       # Total bandwidth to/from this memory (bytes/s)
system.mem_ctrls.bw_total::switch_cpus3.data     14498826                       # Total bandwidth to/from this memory (bytes/s)
system.mem_ctrls.bw_total::total           2828583157                       # Total bandwidth to/from this memory (bytes/s)
system.mem_ctrls.readReqs                    13629219                       # Number of read requests accepted
system.mem_ctrls.writeReqs                    8672941                       # Number of write requests accepted
system.mem_ctrls.readBursts                  13629219                       # Number of DRAM read bursts, including those serviced by the write queue
system.mem_ctrls.writeBursts                  8672941                       # Number of DRAM write bursts, including those merged in the write queue
system.mem_ctrls.bytesReadDRAM              871870336                       # Total number of bytes read from DRAM
system.mem_ctrls.bytesReadWrQ                  399680                       # Total number of bytes read from write queue
system.mem_ctrls.bytesWritten               555066624                       # Total number of bytes written to DRAM
system.mem_ctrls.bytesReadSys               872270016                       # Total read bytes from the system interface side
system.mem_ctrls.bytesWrittenSys            555068224                       # Total written bytes from the system interface side
system.mem_ctrls.servicedByWrQ                   6245                       # Number of DRAM read bursts serviced by the write queue
system.mem_ctrls.mergedWrBursts                     2                       # Number of DRAM write bursts merged with an existing one
system.mem_ctrls.neitherReadNorWriteReqs            0                       # Number of requests that are neither read nor write
system.mem_ctrls.perBankRdBursts::0            931720                       # Per bank write bursts
system.mem_ctrls.perBankRdBursts::1            845607                       # Per bank write bursts
system.mem_ctrls.perBankRdBursts::2            888105                       # Per bank write bursts
system.mem_ctrls.perBankRdBursts::3            786422                       # Per bank write bursts
system.mem_ctrls.perBankRdBursts::4            772141                       # Per bank write bursts
system.mem_ctrls.perBankRdBursts::5            787467                       # Per bank write bursts
system.mem_ctrls.perBankRdBursts::6            835335                       # Per bank write bursts
system.mem_ctrls.perBankRdBursts::7            927123                       # Per bank write bursts
system.mem_ctrls.perBankRdBursts::8            934585                       # Per bank write bursts
system.mem_ctrls.perBankRdBursts::9            837855                       # Per bank write bursts
system.mem_ctrls.perBankRdBursts::10           916042                       # Per bank write bursts
system.mem_ctrls.perBankRdBursts::11           790787                       # Per bank write bursts
system.mem_ctrls.perBankRdBursts::12           766062                       # Per bank write bursts
system.mem_ctrls.perBankRdBursts::13           901809                       # Per bank write bursts
system.mem_ctrls.perBankRdBursts::14           854040                       # Per bank write bursts
system.mem_ctrls.perBankRdBursts::15           847874                       # Per bank write bursts
system.mem_ctrls.perBankWrBursts::0            556638                       # Per bank write bursts
system.mem_ctrls.perBankWrBursts::1            527513                       # Per bank write bursts
system.mem_ctrls.perBankWrBursts::2            568097                       # Per bank write bursts
system.mem_ctrls.perBankWrBursts::3            529471                       # Per bank write bursts
system.mem_ctrls.perBankWrBursts::4            539495                       # Per bank write bursts
system.mem_ctrls.perBankWrBursts::5            538725                       # Per bank write bursts
system.mem_ctrls.perBankWrBursts::6            549154                       # Per bank write bursts
system.mem_ctrls.perBankWrBursts::7            553624                       # Per bank write bursts
system.mem_ctrls.perBankWrBursts::8            542457                       # Per bank write bursts
system.mem_ctrls.perBankWrBursts::9            547660                       # Per bank write bursts
system.mem_ctrls.perBankWrBursts::10           539537                       # Per bank write bursts
system.mem_ctrls.perBankWrBursts::11           526528                       # Per bank write bursts
system.mem_ctrls.perBankWrBursts::12           539611                       # Per bank write bursts
system.mem_ctrls.perBankWrBursts::13           524030                       # Per bank write bursts
system.mem_ctrls.perBankWrBursts::14           553955                       # Per bank write bursts
system.mem_ctrls.perBankWrBursts::15           536421                       # Per bank write bursts
system.mem_ctrls.numRdRetry                         0                       # Number of times read queue was full causing retry
system.mem_ctrls.numWrRetry                      1300                       # Number of times write queue was full causing retry
system.mem_ctrls.totGap                  504612417500                       # Total gap between requests
system.mem_ctrls.readPktSize::0                     0                       # Read request sizes (log2)
system.mem_ctrls.readPktSize::1                     0                       # Read request sizes (log2)
system.mem_ctrls.readPktSize::2                     0                       # Read request sizes (log2)
system.mem_ctrls.readPktSize::3                     0                       # Read request sizes (log2)
system.mem_ctrls.readPktSize::4                     0                       # Read request sizes (log2)
system.mem_ctrls.readPktSize::5                     0                       # Read request sizes (log2)
system.mem_ctrls.readPktSize::6              13629219                       # Read request sizes (log2)
system.mem_ctrls.writePktSize::0                    0                       # Write request sizes (log2)
system.mem_ctrls.writePktSize::1                    0                       # Write request sizes (log2)
system.mem_ctrls.writePktSize::2                    0                       # Write request sizes (log2)
system.mem_ctrls.writePktSize::3                    0                       # Write request sizes (log2)
system.mem_ctrls.writePktSize::4                    0                       # Write request sizes (log2)
system.mem_ctrls.writePktSize::5                    0                       # Write request sizes (log2)
system.mem_ctrls.writePktSize::6              8672941                       # Write request sizes (log2)
system.mem_ctrls.rdQLenPdf::0                 2804444                       # What read queue length does an incoming req see
system.mem_ctrls.rdQLenPdf::1                 3397312                       # What read queue length does an incoming req see
system.mem_ctrls.rdQLenPdf::2                 1746194                       # What read queue length does an incoming req see
system.mem_ctrls.rdQLenPdf::3                 1264116                       # What read queue length does an incoming req see
system.mem_ctrls.rdQLenPdf::4                 1019614                       # What read queue length does an incoming req see
system.mem_ctrls.rdQLenPdf::5                  810391                       # What read queue length does an incoming req see
system.mem_ctrls.rdQLenPdf::6                  662534                       # What read queue length does an incoming req see
system.mem_ctrls.rdQLenPdf::7                  600042                       # What read queue length does an incoming req see
system.mem_ctrls.rdQLenPdf::8                  524095                       # What read queue length does an incoming req see
system.mem_ctrls.rdQLenPdf::9                  395431                       # What read queue length does an incoming req see
system.mem_ctrls.rdQLenPdf::10                 233283                       # What read queue length does an incoming req see
system.mem_ctrls.rdQLenPdf::11                 101186                       # What read queue length does an incoming req see
system.mem_ctrls.rdQLenPdf::12                  38560                       # What read queue length does an incoming req see
system.mem_ctrls.rdQLenPdf::13                  20206                       # What read queue length does an incoming req see
system.mem_ctrls.rdQLenPdf::14                   4435                       # What read queue length does an incoming req see
system.mem_ctrls.rdQLenPdf::15                   1131                       # What read queue length does an incoming req see
system.mem_ctrls.rdQLenPdf::16                      0                       # What read queue length does an incoming req see
system.mem_ctrls.rdQLenPdf::17                      0                       # What read queue length does an incoming req see
system.mem_ctrls.rdQLenPdf::18                      0                       # What read queue length does an incoming req see
system.mem_ctrls.rdQLenPdf::19                      0                       # What read queue length does an incoming req see
system.mem_ctrls.rdQLenPdf::20                      0                       # What read queue length does an incoming req see
system.mem_ctrls.rdQLenPdf::21                      0                       # What read queue length does an incoming req see
system.mem_ctrls.rdQLenPdf::22                      0                       # What read queue length does an incoming req see
system.mem_ctrls.rdQLenPdf::23                      0                       # What read queue length does an incoming req see
system.mem_ctrls.rdQLenPdf::24                      0                       # What read queue length does an incoming req see
system.mem_ctrls.rdQLenPdf::25                      0                       # What read queue length does an incoming req see
system.mem_ctrls.rdQLenPdf::26                      0                       # What read queue length does an incoming req see
system.mem_ctrls.rdQLenPdf::27                      0                       # What read queue length does an incoming req see
system.mem_ctrls.rdQLenPdf::28                      0                       # What read queue length does an incoming req see
system.mem_ctrls.rdQLenPdf::29                      0                       # What read queue length does an incoming req see
system.mem_ctrls.rdQLenPdf::30                      0                       # What read queue length does an incoming req see
system.mem_ctrls.rdQLenPdf::31                      0                       # What read queue length does an incoming req see
system.mem_ctrls.wrQLenPdf::0                       1                       # What write queue length does an incoming req see
system.mem_ctrls.wrQLenPdf::1                       1                       # What write queue length does an incoming req see
system.mem_ctrls.wrQLenPdf::2                       1                       # What write queue length does an incoming req see
system.mem_ctrls.wrQLenPdf::3                       1                       # What write queue length does an incoming req see
system.mem_ctrls.wrQLenPdf::4                       1                       # What write queue length does an incoming req see
system.mem_ctrls.wrQLenPdf::5                       1                       # What write queue length does an incoming req see
system.mem_ctrls.wrQLenPdf::6                       1                       # What write queue length does an incoming req see
system.mem_ctrls.wrQLenPdf::7                       1                       # What write queue length does an incoming req see
system.mem_ctrls.wrQLenPdf::8                       1                       # What write queue length does an incoming req see
system.mem_ctrls.wrQLenPdf::9                       1                       # What write queue length does an incoming req see
system.mem_ctrls.wrQLenPdf::10                      1                       # What write queue length does an incoming req see
system.mem_ctrls.wrQLenPdf::11                      1                       # What write queue length does an incoming req see
system.mem_ctrls.wrQLenPdf::12                      1                       # What write queue length does an incoming req see
system.mem_ctrls.wrQLenPdf::13                      1                       # What write queue length does an incoming req see
system.mem_ctrls.wrQLenPdf::14                      1                       # What write queue length does an incoming req see
system.mem_ctrls.wrQLenPdf::15                  12917                       # What write queue length does an incoming req see
system.mem_ctrls.wrQLenPdf::16                  16234                       # What write queue length does an incoming req see
system.mem_ctrls.wrQLenPdf::17                  77450                       # What write queue length does an incoming req see
system.mem_ctrls.wrQLenPdf::18                 134950                       # What write queue length does an incoming req see
system.mem_ctrls.wrQLenPdf::19                 184718                       # What write queue length does an incoming req see
system.mem_ctrls.wrQLenPdf::20                 243089                       # What write queue length does an incoming req see
system.mem_ctrls.wrQLenPdf::21                 323588                       # What write queue length does an incoming req see
system.mem_ctrls.wrQLenPdf::22                 392226                       # What write queue length does an incoming req see
system.mem_ctrls.wrQLenPdf::23                 451899                       # What write queue length does an incoming req see
system.mem_ctrls.wrQLenPdf::24                 506541                       # What write queue length does an incoming req see
system.mem_ctrls.wrQLenPdf::25                 558009                       # What write queue length does an incoming req see
system.mem_ctrls.wrQLenPdf::26                 609395                       # What write queue length does an incoming req see
system.mem_ctrls.wrQLenPdf::27                 659813                       # What write queue length does an incoming req see
system.mem_ctrls.wrQLenPdf::28                 720849                       # What write queue length does an incoming req see
system.mem_ctrls.wrQLenPdf::29                 802931                       # What write queue length does an incoming req see
system.mem_ctrls.wrQLenPdf::30                 828306                       # What write queue length does an incoming req see
system.mem_ctrls.wrQLenPdf::31                 812941                       # What write queue length does an incoming req see
system.mem_ctrls.wrQLenPdf::32                 723902                       # What write queue length does an incoming req see
system.mem_ctrls.wrQLenPdf::33                 152717                       # What write queue length does an incoming req see
system.mem_ctrls.wrQLenPdf::34                  96851                       # What write queue length does an incoming req see
system.mem_ctrls.wrQLenPdf::35                  65438                       # What write queue length does an incoming req see
system.mem_ctrls.wrQLenPdf::36                  46345                       # What write queue length does an incoming req see
system.mem_ctrls.wrQLenPdf::37                  34066                       # What write queue length does an incoming req see
system.mem_ctrls.wrQLenPdf::38                  25442                       # What write queue length does an incoming req see
system.mem_ctrls.wrQLenPdf::39                  19931                       # What write queue length does an incoming req see
system.mem_ctrls.wrQLenPdf::40                  16121                       # What write queue length does an incoming req see
system.mem_ctrls.wrQLenPdf::41                  13806                       # What write queue length does an incoming req see
system.mem_ctrls.wrQLenPdf::42                  11834                       # What write queue length does an incoming req see
system.mem_ctrls.wrQLenPdf::43                  10641                       # What write queue length does an incoming req see
system.mem_ctrls.wrQLenPdf::44                   9423                       # What write queue length does an incoming req see
system.mem_ctrls.wrQLenPdf::45                   8880                       # What write queue length does an incoming req see
system.mem_ctrls.wrQLenPdf::46                   8291                       # What write queue length does an incoming req see
system.mem_ctrls.wrQLenPdf::47                   7936                       # What write queue length does an incoming req see
system.mem_ctrls.wrQLenPdf::48                   7389                       # What write queue length does an incoming req see
system.mem_ctrls.wrQLenPdf::49                   7106                       # What write queue length does an incoming req see
system.mem_ctrls.wrQLenPdf::50                   6739                       # What write queue length does an incoming req see
system.mem_ctrls.wrQLenPdf::51                   6968                       # What write queue length does an incoming req see
system.mem_ctrls.wrQLenPdf::52                   7294                       # What write queue length does an incoming req see
system.mem_ctrls.wrQLenPdf::53                   6831                       # What write queue length does an incoming req see
system.mem_ctrls.wrQLenPdf::54                   7240                       # What write queue length does an incoming req see
system.mem_ctrls.wrQLenPdf::55                   7270                       # What write queue length does an incoming req see
system.mem_ctrls.wrQLenPdf::56                   5273                       # What write queue length does an incoming req see
system.mem_ctrls.wrQLenPdf::57                   4315                       # What write queue length does an incoming req see
system.mem_ctrls.wrQLenPdf::58                   3807                       # What write queue length does an incoming req see
system.mem_ctrls.wrQLenPdf::59                   3338                       # What write queue length does an incoming req see
system.mem_ctrls.wrQLenPdf::60                   2849                       # What write queue length does an incoming req see
system.mem_ctrls.wrQLenPdf::61                   2609                       # What write queue length does an incoming req see
system.mem_ctrls.wrQLenPdf::62                   2269                       # What write queue length does an incoming req see
system.mem_ctrls.wrQLenPdf::63                   4147                       # What write queue length does an incoming req see
system.mem_ctrls.bytesPerActivate::samples     11096336                       # Bytes accessed per row activation
system.mem_ctrls.bytesPerActivate::mean    128.595275                       # Bytes accessed per row activation
system.mem_ctrls.bytesPerActivate::gmean    89.238228                       # Bytes accessed per row activation
system.mem_ctrls.bytesPerActivate::stdev   177.681982                       # Bytes accessed per row activation
system.mem_ctrls.bytesPerActivate::0-127      8345459     75.21%     75.21% # Bytes accessed per row activation
system.mem_ctrls.bytesPerActivate::128-255      1563059     14.09%     89.30% # Bytes accessed per row activation
system.mem_ctrls.bytesPerActivate::256-383       409845      3.69%     92.99% # Bytes accessed per row activation
system.mem_ctrls.bytesPerActivate::384-511       177309      1.60%     94.59% # Bytes accessed per row activation
system.mem_ctrls.bytesPerActivate::512-639       190146      1.71%     96.30% # Bytes accessed per row activation
system.mem_ctrls.bytesPerActivate::640-767        88666      0.80%     97.10% # Bytes accessed per row activation
system.mem_ctrls.bytesPerActivate::768-895        54278      0.49%     97.59% # Bytes accessed per row activation
system.mem_ctrls.bytesPerActivate::896-1023        62148      0.56%     98.15% # Bytes accessed per row activation
system.mem_ctrls.bytesPerActivate::1024-1151       205426      1.85%    100.00% # Bytes accessed per row activation
system.mem_ctrls.bytesPerActivate::total     11096336                       # Bytes accessed per row activation
system.mem_ctrls.rdPerTurnAround::samples       537656                       # Reads before turning the bus around for writes
system.mem_ctrls.rdPerTurnAround::mean      25.375999                       # Reads before turning the bus around for writes
system.mem_ctrls.rdPerTurnAround::stdev     41.852832                       # Reads before turning the bus around for writes
system.mem_ctrls.rdPerTurnAround::0-1023       537643    100.00%    100.00% # Reads before turning the bus around for writes
system.mem_ctrls.rdPerTurnAround::1024-2047           12      0.00%    100.00% # Reads before turning the bus around for writes
system.mem_ctrls.rdPerTurnAround::27648-28671            1      0.00%    100.00% # Reads before turning the bus around for writes
system.mem_ctrls.rdPerTurnAround::total        537656                       # Reads before turning the bus around for writes
system.mem_ctrls.wrPerTurnAround::samples       537656                       # Writes before turning the bus around for reads
system.mem_ctrls.wrPerTurnAround::mean      16.130976                       # Writes before turning the bus around for reads
system.mem_ctrls.wrPerTurnAround::gmean     16.111024                       # Writes before turning the bus around for reads
system.mem_ctrls.wrPerTurnAround::stdev      1.062732                       # Writes before turning the bus around for reads
system.mem_ctrls.wrPerTurnAround::16-19        531733     98.90%     98.90% # Writes before turning the bus around for reads
system.mem_ctrls.wrPerTurnAround::20-23          4753      0.88%     99.78% # Writes before turning the bus around for reads
system.mem_ctrls.wrPerTurnAround::24-27           681      0.13%     99.91% # Writes before turning the bus around for reads
system.mem_ctrls.wrPerTurnAround::28-31           190      0.04%     99.94% # Writes before turning the bus around for reads
system.mem_ctrls.wrPerTurnAround::32-35           113      0.02%     99.97% # Writes before turning the bus around for reads
system.mem_ctrls.wrPerTurnAround::36-39            52      0.01%     99.98% # Writes before turning the bus around for reads
system.mem_ctrls.wrPerTurnAround::40-43            24      0.00%     99.98% # Writes before turning the bus around for reads
system.mem_ctrls.wrPerTurnAround::44-47            26      0.00%     99.98% # Writes before turning the bus around for reads
system.mem_ctrls.wrPerTurnAround::48-51            20      0.00%     99.99% # Writes before turning the bus around for reads
system.mem_ctrls.wrPerTurnAround::52-55             7      0.00%     99.99% # Writes before turning the bus around for reads
system.mem_ctrls.wrPerTurnAround::56-59             7      0.00%     99.99% # Writes before turning the bus around for reads
system.mem_ctrls.wrPerTurnAround::60-63            10      0.00%     99.99% # Writes before turning the bus around for reads
system.mem_ctrls.wrPerTurnAround::64-67            15      0.00%    100.00% # Writes before turning the bus around for reads
system.mem_ctrls.wrPerTurnAround::68-71             4      0.00%    100.00% # Writes before turning the bus around for reads
system.mem_ctrls.wrPerTurnAround::72-75             2      0.00%    100.00% # Writes before turning the bus around for reads
system.mem_ctrls.wrPerTurnAround::76-79             6      0.00%    100.00% # Writes before turning the bus around for reads
system.mem_ctrls.wrPerTurnAround::80-83             3      0.00%    100.00% # Writes before turning the bus around for reads
system.mem_ctrls.wrPerTurnAround::84-87             1      0.00%    100.00% # Writes before turning the bus around for reads
system.mem_ctrls.wrPerTurnAround::92-95             1      0.00%    100.00% # Writes before turning the bus around for reads
system.mem_ctrls.wrPerTurnAround::96-99             3      0.00%    100.00% # Writes before turning the bus around for reads
system.mem_ctrls.wrPerTurnAround::108-111            3      0.00%    100.00% # Writes before turning the bus around for reads
system.mem_ctrls.wrPerTurnAround::128-131            1      0.00%    100.00% # Writes before turning the bus around for reads
system.mem_ctrls.wrPerTurnAround::156-159            1      0.00%    100.00% # Writes before turning the bus around for reads
system.mem_ctrls.wrPerTurnAround::total        537656                       # Writes before turning the bus around for reads
system.mem_ctrls.totQLat                 1126450385376                       # Total ticks spent queuing
system.mem_ctrls.totMemAccLat            1381881147876                       # Total ticks spent from burst creation until serviced by the DRAM
system.mem_ctrls.totBusLat                68114870000                       # Total ticks spent in databus transfers
system.mem_ctrls.avgQLat                     82687.55                       # Average queueing delay per DRAM burst
system.mem_ctrls.avgBusLat                    5000.00                       # Average bus latency per DRAM burst
system.mem_ctrls.avgMemAccLat               101437.55                       # Average memory access latency per DRAM burst
system.mem_ctrls.avgRdBW                      1727.80                       # Average DRAM read bandwidth in MiByte/s
system.mem_ctrls.avgWrBW                      1099.99                       # Average achieved write bandwidth in MiByte/s
system.mem_ctrls.avgRdBWSys                   1728.59                       # Average system read bandwidth in MiByte/s
system.mem_ctrls.avgWrBWSys                   1099.99                       # Average system write bandwidth in MiByte/s
system.mem_ctrls.peakBW                      12800.00                       # Theoretical peak bandwidth in MiByte/s
system.mem_ctrls.busUtil                        22.09                       # Data bus utilization in percentage
system.mem_ctrls.busUtilRead                    13.50                       # Data bus utilization in percentage for reads
system.mem_ctrls.busUtilWrite                    8.59                       # Data bus utilization in percentage for writes
system.mem_ctrls.avgRdQLen                       3.76                       # Average read queue length when enqueuing
system.mem_ctrls.avgWrQLen                      27.43                       # Average write queue length when enqueuing
system.mem_ctrls.readRowHits                  8153990                       # Number of row buffer hits during reads
system.mem_ctrls.writeRowHits                 3045561                       # Number of row buffer hits during writes
system.mem_ctrls.readRowHitRate                 59.85                       # Row buffer hit rate for reads
system.mem_ctrls.writeRowHitRate                35.12                       # Row buffer hit rate for writes
system.mem_ctrls.avgGap                      22626.17                       # Average gap between requests
system.mem_ctrls.pageHitRate                    50.23                       # Row buffer hit rate, read and write combined
system.mem_ctrls_0.actEnergy              41793297840                       # Energy for activate commands per rank (pJ)
system.mem_ctrls_0.preEnergy              22803882750                       # Energy for precharge commands per rank (pJ)
system.mem_ctrls_0.readEnergy             52917189000                       # Energy for read commands per rank (pJ)
system.mem_ctrls_0.writeEnergy            28270328400                       # Energy for write commands per rank (pJ)
system.mem_ctrls_0.refreshEnergy          33004526880                       # Energy for refresh commands per rank (pJ)
system.mem_ctrls_0.actBackEnergy         338526718965                       # Energy for active background per rank (pJ)
system.mem_ctrls_0.preBackEnergy           6234125250                       # Energy for precharge background per rank (pJ)
system.mem_ctrls_0.totalEnergy           523550069085                       # Total energy per rank (pJ)
system.mem_ctrls_0.averagePower           1036.092049                       # Core power per rank (mW)
system.mem_ctrls_0.memoryStateTime::IDLE   8121127068                       # Time in different power states
system.mem_ctrls_0.memoryStateTime::REF   16850080000                       # Time in different power states
system.mem_ctrls_0.memoryStateTime::PRE_PDN            0                       # Time in different power states
system.mem_ctrls_0.memoryStateTime::ACT  479640082932                       # Time in different power states
system.mem_ctrls_0.memoryStateTime::ACT_PDN            0                       # Time in different power states
system.mem_ctrls_1.actEnergy              42149638440                       # Energy for activate commands per rank (pJ)
system.mem_ctrls_1.preEnergy              22998314625                       # Energy for precharge commands per rank (pJ)
system.mem_ctrls_1.readEnergy             53502438600                       # Energy for read commands per rank (pJ)
system.mem_ctrls_1.writeEnergy            27930063600                       # Energy for write commands per rank (pJ)
system.mem_ctrls_1.refreshEnergy          33004526880                       # Energy for refresh commands per rank (pJ)
system.mem_ctrls_1.actBackEnergy         339509081475                       # Energy for active background per rank (pJ)
system.mem_ctrls_1.preBackEnergy           5372403750                       # Energy for precharge background per rank (pJ)
system.mem_ctrls_1.totalEnergy           524466467370                       # Total energy per rank (pJ)
system.mem_ctrls_1.averagePower           1037.905577                       # Core power per rank (mW)
system.mem_ctrls_1.memoryStateTime::IDLE   6747140535                       # Time in different power states
system.mem_ctrls_1.memoryStateTime::REF   16850080000                       # Time in different power states
system.mem_ctrls_1.memoryStateTime::PRE_PDN            0                       # Time in different power states
system.mem_ctrls_1.memoryStateTime::ACT  481014069465                       # Time in different power states
system.mem_ctrls_1.memoryStateTime::ACT_PDN            0                       # Time in different power states
system.realview.nvmem.pwrStateResidencyTicks::UNDEFINED 3741162140500                       # Cumulative time (in ticks) in various power states
system.realview.vram.pwrStateResidencyTicks::UNDEFINED 3741162140500                       # Cumulative time (in ticks) in various power states
system.pwrStateResidencyTicks::UNDEFINED 3741162140500                       # Cumulative time (in ticks) in various power states
system.bridge.pwrStateResidencyTicks::UNDEFINED 3741162140500                       # Cumulative time (in ticks) in various power states
system.cf0.dma_read_full_pages                      0                       # Number of full page size DMA reads (not PRD).
system.cf0.dma_read_bytes                           0                       # Number of bytes transfered via DMA reads (not PRD).
system.cf0.dma_read_txs                             0                       # Number of DMA read transactions (not PRD).
system.cf0.dma_write_full_pages                  2334                       # Number of full page size DMA writes.
system.cf0.dma_write_bytes                    9636864                       # Number of bytes transfered via DMA writes.
system.cf0.dma_write_txs                         2404                       # Number of DMA write transactions.
system.cpu_voltage_domain.voltage                   1                       # Voltage in Volts
system.cpu_clk_domain.clock                       500                       # Clock period in ticks
system.cpu0.dstage2_mmu.stage2_tlb.walker.pwrStateResidencyTicks::UNDEFINED 3741162140500                       # Cumulative time (in ticks) in various power states
system.cpu0.dstage2_mmu.stage2_tlb.walker.walks            0                       # Table walker walks requested
system.cpu0.dstage2_mmu.stage2_tlb.walker.walkRequestOrigin_Requested::Data            0                       # Table walker requests started/completed, data/inst
system.cpu0.dstage2_mmu.stage2_tlb.walker.walkRequestOrigin_Requested::Inst            0                       # Table walker requests started/completed, data/inst
system.cpu0.dstage2_mmu.stage2_tlb.walker.walkRequestOrigin_Requested::total            0                       # Table walker requests started/completed, data/inst
system.cpu0.dstage2_mmu.stage2_tlb.walker.walkRequestOrigin_Completed::Data            0                       # Table walker requests started/completed, data/inst
system.cpu0.dstage2_mmu.stage2_tlb.walker.walkRequestOrigin_Completed::Inst            0                       # Table walker requests started/completed, data/inst
system.cpu0.dstage2_mmu.stage2_tlb.walker.walkRequestOrigin_Completed::total            0                       # Table walker requests started/completed, data/inst
system.cpu0.dstage2_mmu.stage2_tlb.walker.walkRequestOrigin::total            0                       # Table walker requests started/completed, data/inst
system.cpu0.dstage2_mmu.stage2_tlb.inst_hits            0                       # ITB inst hits
system.cpu0.dstage2_mmu.stage2_tlb.inst_misses            0                       # ITB inst misses
system.cpu0.dstage2_mmu.stage2_tlb.read_hits            0                       # DTB read hits
system.cpu0.dstage2_mmu.stage2_tlb.read_misses            0                       # DTB read misses
system.cpu0.dstage2_mmu.stage2_tlb.write_hits            0                       # DTB write hits
system.cpu0.dstage2_mmu.stage2_tlb.write_misses            0                       # DTB write misses
system.cpu0.dstage2_mmu.stage2_tlb.flush_tlb            0                       # Number of times complete TLB was flushed
system.cpu0.dstage2_mmu.stage2_tlb.flush_tlb_mva            0                       # Number of times TLB was flushed by MVA
system.cpu0.dstage2_mmu.stage2_tlb.flush_tlb_mva_asid            0                       # Number of times TLB was flushed by MVA & ASID
system.cpu0.dstage2_mmu.stage2_tlb.flush_tlb_asid            0                       # Number of times TLB was flushed by ASID
system.cpu0.dstage2_mmu.stage2_tlb.flush_entries            0                       # Number of entries that have been flushed from TLB
system.cpu0.dstage2_mmu.stage2_tlb.align_faults            0                       # Number of TLB faults due to alignment restrictions
system.cpu0.dstage2_mmu.stage2_tlb.prefetch_faults            0                       # Number of TLB faults due to prefetch
system.cpu0.dstage2_mmu.stage2_tlb.domain_faults            0                       # Number of TLB faults due to domain restrictions
system.cpu0.dstage2_mmu.stage2_tlb.perms_faults            0                       # Number of TLB faults due to permissions restrictions
system.cpu0.dstage2_mmu.stage2_tlb.read_accesses            0                       # DTB read accesses
system.cpu0.dstage2_mmu.stage2_tlb.write_accesses            0                       # DTB write accesses
system.cpu0.dstage2_mmu.stage2_tlb.inst_accesses            0                       # ITB inst accesses
system.cpu0.dstage2_mmu.stage2_tlb.hits             0                       # DTB hits
system.cpu0.dstage2_mmu.stage2_tlb.misses            0                       # DTB misses
system.cpu0.dstage2_mmu.stage2_tlb.accesses            0                       # DTB accesses
system.cpu0.dtb.walker.pwrStateResidencyTicks::UNDEFINED 3741162140500                       # Cumulative time (in ticks) in various power states
system.cpu0.dtb.walker.walks                        0                       # Table walker walks requested
system.cpu0.dtb.walker.walkRequestOrigin_Requested::Data            0                       # Table walker requests started/completed, data/inst
system.cpu0.dtb.walker.walkRequestOrigin_Requested::Inst            0                       # Table walker requests started/completed, data/inst
system.cpu0.dtb.walker.walkRequestOrigin_Requested::total            0                       # Table walker requests started/completed, data/inst
system.cpu0.dtb.walker.walkRequestOrigin_Completed::Data            0                       # Table walker requests started/completed, data/inst
system.cpu0.dtb.walker.walkRequestOrigin_Completed::Inst            0                       # Table walker requests started/completed, data/inst
system.cpu0.dtb.walker.walkRequestOrigin_Completed::total            0                       # Table walker requests started/completed, data/inst
system.cpu0.dtb.walker.walkRequestOrigin::total            0                       # Table walker requests started/completed, data/inst
system.cpu0.dtb.inst_hits                           0                       # ITB inst hits
system.cpu0.dtb.inst_misses                         0                       # ITB inst misses
system.cpu0.dtb.read_hits                           0                       # DTB read hits
system.cpu0.dtb.read_misses                         0                       # DTB read misses
system.cpu0.dtb.write_hits                          0                       # DTB write hits
system.cpu0.dtb.write_misses                        0                       # DTB write misses
system.cpu0.dtb.flush_tlb                           0                       # Number of times complete TLB was flushed
system.cpu0.dtb.flush_tlb_mva                       0                       # Number of times TLB was flushed by MVA
system.cpu0.dtb.flush_tlb_mva_asid                  0                       # Number of times TLB was flushed by MVA & ASID
system.cpu0.dtb.flush_tlb_asid                      0                       # Number of times TLB was flushed by ASID
system.cpu0.dtb.flush_entries                       0                       # Number of entries that have been flushed from TLB
system.cpu0.dtb.align_faults                        0                       # Number of TLB faults due to alignment restrictions
system.cpu0.dtb.prefetch_faults                     0                       # Number of TLB faults due to prefetch
system.cpu0.dtb.domain_faults                       0                       # Number of TLB faults due to domain restrictions
system.cpu0.dtb.perms_faults                        0                       # Number of TLB faults due to permissions restrictions
system.cpu0.dtb.read_accesses                       0                       # DTB read accesses
system.cpu0.dtb.write_accesses                      0                       # DTB write accesses
system.cpu0.dtb.inst_accesses                       0                       # ITB inst accesses
system.cpu0.dtb.hits                                0                       # DTB hits
system.cpu0.dtb.misses                              0                       # DTB misses
system.cpu0.dtb.accesses                            0                       # DTB accesses
system.cpu0.istage2_mmu.stage2_tlb.walker.pwrStateResidencyTicks::UNDEFINED 3741162140500                       # Cumulative time (in ticks) in various power states
system.cpu0.istage2_mmu.stage2_tlb.walker.walks            0                       # Table walker walks requested
system.cpu0.istage2_mmu.stage2_tlb.walker.walkRequestOrigin_Requested::Data            0                       # Table walker requests started/completed, data/inst
system.cpu0.istage2_mmu.stage2_tlb.walker.walkRequestOrigin_Requested::Inst            0                       # Table walker requests started/completed, data/inst
system.cpu0.istage2_mmu.stage2_tlb.walker.walkRequestOrigin_Requested::total            0                       # Table walker requests started/completed, data/inst
system.cpu0.istage2_mmu.stage2_tlb.walker.walkRequestOrigin_Completed::Data            0                       # Table walker requests started/completed, data/inst
system.cpu0.istage2_mmu.stage2_tlb.walker.walkRequestOrigin_Completed::Inst            0                       # Table walker requests started/completed, data/inst
system.cpu0.istage2_mmu.stage2_tlb.walker.walkRequestOrigin_Completed::total            0                       # Table walker requests started/completed, data/inst
system.cpu0.istage2_mmu.stage2_tlb.walker.walkRequestOrigin::total            0                       # Table walker requests started/completed, data/inst
system.cpu0.istage2_mmu.stage2_tlb.inst_hits            0                       # ITB inst hits
system.cpu0.istage2_mmu.stage2_tlb.inst_misses            0                       # ITB inst misses
system.cpu0.istage2_mmu.stage2_tlb.read_hits            0                       # DTB read hits
system.cpu0.istage2_mmu.stage2_tlb.read_misses            0                       # DTB read misses
system.cpu0.istage2_mmu.stage2_tlb.write_hits            0                       # DTB write hits
system.cpu0.istage2_mmu.stage2_tlb.write_misses            0                       # DTB write misses
system.cpu0.istage2_mmu.stage2_tlb.flush_tlb            0                       # Number of times complete TLB was flushed
system.cpu0.istage2_mmu.stage2_tlb.flush_tlb_mva            0                       # Number of times TLB was flushed by MVA
system.cpu0.istage2_mmu.stage2_tlb.flush_tlb_mva_asid            0                       # Number of times TLB was flushed by MVA & ASID
system.cpu0.istage2_mmu.stage2_tlb.flush_tlb_asid            0                       # Number of times TLB was flushed by ASID
system.cpu0.istage2_mmu.stage2_tlb.flush_entries            0                       # Number of entries that have been flushed from TLB
system.cpu0.istage2_mmu.stage2_tlb.align_faults            0                       # Number of TLB faults due to alignment restrictions
system.cpu0.istage2_mmu.stage2_tlb.prefetch_faults            0                       # Number of TLB faults due to prefetch
system.cpu0.istage2_mmu.stage2_tlb.domain_faults            0                       # Number of TLB faults due to domain restrictions
system.cpu0.istage2_mmu.stage2_tlb.perms_faults            0                       # Number of TLB faults due to permissions restrictions
system.cpu0.istage2_mmu.stage2_tlb.read_accesses            0                       # DTB read accesses
system.cpu0.istage2_mmu.stage2_tlb.write_accesses            0                       # DTB write accesses
system.cpu0.istage2_mmu.stage2_tlb.inst_accesses            0                       # ITB inst accesses
system.cpu0.istage2_mmu.stage2_tlb.hits             0                       # DTB hits
system.cpu0.istage2_mmu.stage2_tlb.misses            0                       # DTB misses
system.cpu0.istage2_mmu.stage2_tlb.accesses            0                       # DTB accesses
system.cpu0.itb.walker.pwrStateResidencyTicks::UNDEFINED 3741162140500                       # Cumulative time (in ticks) in various power states
system.cpu0.itb.walker.walks                        0                       # Table walker walks requested
system.cpu0.itb.walker.walkRequestOrigin_Requested::Data            0                       # Table walker requests started/completed, data/inst
system.cpu0.itb.walker.walkRequestOrigin_Requested::Inst            0                       # Table walker requests started/completed, data/inst
system.cpu0.itb.walker.walkRequestOrigin_Requested::total            0                       # Table walker requests started/completed, data/inst
system.cpu0.itb.walker.walkRequestOrigin_Completed::Data            0                       # Table walker requests started/completed, data/inst
system.cpu0.itb.walker.walkRequestOrigin_Completed::Inst            0                       # Table walker requests started/completed, data/inst
system.cpu0.itb.walker.walkRequestOrigin_Completed::total            0                       # Table walker requests started/completed, data/inst
system.cpu0.itb.walker.walkRequestOrigin::total            0                       # Table walker requests started/completed, data/inst
system.cpu0.itb.inst_hits                           0                       # ITB inst hits
system.cpu0.itb.inst_misses                         0                       # ITB inst misses
system.cpu0.itb.read_hits                           0                       # DTB read hits
system.cpu0.itb.read_misses                         0                       # DTB read misses
system.cpu0.itb.write_hits                          0                       # DTB write hits
system.cpu0.itb.write_misses                        0                       # DTB write misses
system.cpu0.itb.flush_tlb                           0                       # Number of times complete TLB was flushed
system.cpu0.itb.flush_tlb_mva                       0                       # Number of times TLB was flushed by MVA
system.cpu0.itb.flush_tlb_mva_asid                  0                       # Number of times TLB was flushed by MVA & ASID
system.cpu0.itb.flush_tlb_asid                      0                       # Number of times TLB was flushed by ASID
system.cpu0.itb.flush_entries                       0                       # Number of entries that have been flushed from TLB
system.cpu0.itb.align_faults                        0                       # Number of TLB faults due to alignment restrictions
system.cpu0.itb.prefetch_faults                     0                       # Number of TLB faults due to prefetch
system.cpu0.itb.domain_faults                       0                       # Number of TLB faults due to domain restrictions
system.cpu0.itb.perms_faults                        0                       # Number of TLB faults due to permissions restrictions
system.cpu0.itb.read_accesses                       0                       # DTB read accesses
system.cpu0.itb.write_accesses                      0                       # DTB write accesses
system.cpu0.itb.inst_accesses                       0                       # ITB inst accesses
system.cpu0.itb.hits                                0                       # DTB hits
system.cpu0.itb.misses                              0                       # DTB misses
system.cpu0.itb.accesses                            0                       # DTB accesses
system.cpu0.pwrStateResidencyTicks::ON   505314945000                       # Cumulative time (in ticks) in various power states
system.cpu0.numCycles                               0                       # number of cpu cycles simulated
system.cpu0.numWorkItemsStarted                     0                       # number of work items this cpu started
system.cpu0.numWorkItemsCompleted                   0                       # number of work items this cpu completed
system.cpu0.kern.inst.arm                           0                       # number of arm instructions executed
system.cpu0.kern.inst.quiesce                     469                       # number of quiesce instructions executed
system.cpu0.committedInsts                          0                       # Number of instructions committed
system.cpu0.committedOps                            0                       # Number of ops (including micro ops) committed
system.cpu0.num_int_alu_accesses                    0                       # Number of integer alu accesses
system.cpu0.num_fp_alu_accesses                     0                       # Number of float alu accesses
system.cpu0.num_func_calls                          0                       # number of times a function call or return occured
system.cpu0.num_conditional_control_insts            0                       # number of instructions that are conditional controls
system.cpu0.num_int_insts                           0                       # number of integer instructions
system.cpu0.num_fp_insts                            0                       # number of float instructions
system.cpu0.num_int_register_reads                  0                       # number of times the integer registers were read
system.cpu0.num_int_register_writes                 0                       # number of times the integer registers were written
system.cpu0.num_fp_register_reads                   0                       # number of times the floating registers were read
system.cpu0.num_fp_register_writes                  0                       # number of times the floating registers were written
system.cpu0.num_mem_refs                            0                       # number of memory refs
system.cpu0.num_load_insts                          0                       # Number of load instructions
system.cpu0.num_store_insts                         0                       # Number of store instructions
system.cpu0.num_idle_cycles                         0                       # Number of idle cycles
system.cpu0.num_busy_cycles                         0                       # Number of busy cycles
system.cpu0.not_idle_fraction                       0                       # Percentage of non-idle cycles
system.cpu0.idle_fraction                           1                       # Percentage of idle cycles
system.cpu0.op_class::No_OpClass                    0                       # Class of executed instruction
system.cpu0.op_class::IntAlu                        0                       # Class of executed instruction
system.cpu0.op_class::IntMult                       0                       # Class of executed instruction
system.cpu0.op_class::IntDiv                        0                       # Class of executed instruction
system.cpu0.op_class::FloatAdd                      0                       # Class of executed instruction
system.cpu0.op_class::FloatCmp                      0                       # Class of executed instruction
system.cpu0.op_class::FloatCvt                      0                       # Class of executed instruction
system.cpu0.op_class::FloatMult                     0                       # Class of executed instruction
system.cpu0.op_class::FloatDiv                      0                       # Class of executed instruction
system.cpu0.op_class::FloatSqrt                     0                       # Class of executed instruction
system.cpu0.op_class::SimdAdd                       0                       # Class of executed instruction
system.cpu0.op_class::SimdAddAcc                    0                       # Class of executed instruction
system.cpu0.op_class::SimdAlu                       0                       # Class of executed instruction
system.cpu0.op_class::SimdCmp                       0                       # Class of executed instruction
system.cpu0.op_class::SimdCvt                       0                       # Class of executed instruction
system.cpu0.op_class::SimdMisc                      0                       # Class of executed instruction
system.cpu0.op_class::SimdMult                      0                       # Class of executed instruction
system.cpu0.op_class::SimdMultAcc                   0                       # Class of executed instruction
system.cpu0.op_class::SimdShift                     0                       # Class of executed instruction
system.cpu0.op_class::SimdShiftAcc                  0                       # Class of executed instruction
system.cpu0.op_class::SimdSqrt                      0                       # Class of executed instruction
system.cpu0.op_class::SimdFloatAdd                  0                       # Class of executed instruction
system.cpu0.op_class::SimdFloatAlu                  0                       # Class of executed instruction
system.cpu0.op_class::SimdFloatCmp                  0                       # Class of executed instruction
system.cpu0.op_class::SimdFloatCvt                  0                       # Class of executed instruction
system.cpu0.op_class::SimdFloatDiv                  0                       # Class of executed instruction
system.cpu0.op_class::SimdFloatMisc                 0                       # Class of executed instruction
system.cpu0.op_class::SimdFloatMult                 0                       # Class of executed instruction
system.cpu0.op_class::SimdFloatMultAcc              0                       # Class of executed instruction
system.cpu0.op_class::SimdFloatSqrt                 0                       # Class of executed instruction
system.cpu0.op_class::MemRead                       0                       # Class of executed instruction
system.cpu0.op_class::MemWrite                      0                       # Class of executed instruction
system.cpu0.op_class::IprAccess                     0                       # Class of executed instruction
system.cpu0.op_class::InstPrefetch                  0                       # Class of executed instruction
system.cpu0.op_class::total                         0                       # Class of executed instruction
system.cpu0.dcache.tags.pwrStateResidencyTicks::UNDEFINED 3741162140500                       # Cumulative time (in ticks) in various power states
system.cpu0.dcache.tags.replacements         12148525                       # number of replacements
system.cpu0.dcache.tags.tagsinuse         1021.745181                       # Cycle average of tags in use
system.cpu0.dcache.tags.total_refs          144507510                       # Total number of references to valid blocks.
system.cpu0.dcache.tags.sampled_refs         12149503                       # Sample count of references to valid blocks.
system.cpu0.dcache.tags.avg_refs            11.894109                       # Average number of references to valid blocks.
system.cpu0.dcache.tags.warmup_cycle     3247557089500                       # Cycle when the warmup percentage was hit.
system.cpu0.dcache.tags.occ_blocks::switch_cpus0.data  1021.745181                       # Average occupied blocks per requestor
system.cpu0.dcache.tags.occ_percent::switch_cpus0.data     0.997798                       # Average percentage of cache occupancy
system.cpu0.dcache.tags.occ_percent::total     0.997798                       # Average percentage of cache occupancy
system.cpu0.dcache.tags.occ_task_id_blocks::1024          978                       # Occupied blocks per task id
system.cpu0.dcache.tags.age_task_id_blocks_1024::0           36                       # Occupied blocks per task id
system.cpu0.dcache.tags.age_task_id_blocks_1024::1          269                       # Occupied blocks per task id
system.cpu0.dcache.tags.age_task_id_blocks_1024::2          673                       # Occupied blocks per task id
system.cpu0.dcache.tags.occ_task_id_percent::1024     0.955078                       # Percentage of cache occupancy per task id
system.cpu0.dcache.tags.tag_accesses        355616329                       # Number of tag accesses
system.cpu0.dcache.tags.data_accesses       355616329                       # Number of data accesses
system.cpu0.dcache.pwrStateResidencyTicks::UNDEFINED 3741162140500                       # Cumulative time (in ticks) in various power states
system.cpu0.dcache.ReadReq_hits::switch_cpus0.data     97403647                       # number of ReadReq hits
system.cpu0.dcache.ReadReq_hits::total       97403647                       # number of ReadReq hits
system.cpu0.dcache.WriteReq_hits::switch_cpus0.data     46540473                       # number of WriteReq hits
system.cpu0.dcache.WriteReq_hits::total      46540473                       # number of WriteReq hits
system.cpu0.dcache.SoftPFReq_hits::switch_cpus0.data        42475                       # number of SoftPFReq hits
system.cpu0.dcache.SoftPFReq_hits::total        42475                       # number of SoftPFReq hits
system.cpu0.dcache.LoadLockedReq_hits::switch_cpus0.data       239020                       # number of LoadLockedReq hits
system.cpu0.dcache.LoadLockedReq_hits::total       239020                       # number of LoadLockedReq hits
system.cpu0.dcache.StoreCondReq_hits::switch_cpus0.data       237510                       # number of StoreCondReq hits
system.cpu0.dcache.StoreCondReq_hits::total       237510                       # number of StoreCondReq hits
system.cpu0.dcache.demand_hits::switch_cpus0.data    143944120                       # number of demand (read+write) hits
system.cpu0.dcache.demand_hits::total       143944120                       # number of demand (read+write) hits
system.cpu0.dcache.overall_hits::switch_cpus0.data    143986595                       # number of overall hits
system.cpu0.dcache.overall_hits::total      143986595                       # number of overall hits
system.cpu0.dcache.ReadReq_misses::switch_cpus0.data     25930110                       # number of ReadReq misses
system.cpu0.dcache.ReadReq_misses::total     25930110                       # number of ReadReq misses
system.cpu0.dcache.WriteReq_misses::switch_cpus0.data      1272540                       # number of WriteReq misses
system.cpu0.dcache.WriteReq_misses::total      1272540                       # number of WriteReq misses
system.cpu0.dcache.SoftPFReq_misses::switch_cpus0.data        52869                       # number of SoftPFReq misses
system.cpu0.dcache.SoftPFReq_misses::total        52869                       # number of SoftPFReq misses
system.cpu0.dcache.LoadLockedReq_misses::switch_cpus0.data         5028                       # number of LoadLockedReq misses
system.cpu0.dcache.LoadLockedReq_misses::total         5028                       # number of LoadLockedReq misses
system.cpu0.dcache.StoreCondReq_misses::switch_cpus0.data         4774                       # number of StoreCondReq misses
system.cpu0.dcache.StoreCondReq_misses::total         4774                       # number of StoreCondReq misses
system.cpu0.dcache.demand_misses::switch_cpus0.data     27202650                       # number of demand (read+write) misses
system.cpu0.dcache.demand_misses::total      27202650                       # number of demand (read+write) misses
system.cpu0.dcache.overall_misses::switch_cpus0.data     27255519                       # number of overall misses
system.cpu0.dcache.overall_misses::total     27255519                       # number of overall misses
system.cpu0.dcache.ReadReq_miss_latency::switch_cpus0.data 1326933438000                       # number of ReadReq miss cycles
system.cpu0.dcache.ReadReq_miss_latency::total 1326933438000                       # number of ReadReq miss cycles
system.cpu0.dcache.WriteReq_miss_latency::switch_cpus0.data  30032316199                       # number of WriteReq miss cycles
system.cpu0.dcache.WriteReq_miss_latency::total  30032316199                       # number of WriteReq miss cycles
system.cpu0.dcache.LoadLockedReq_miss_latency::switch_cpus0.data    197790000                       # number of LoadLockedReq miss cycles
system.cpu0.dcache.LoadLockedReq_miss_latency::total    197790000                       # number of LoadLockedReq miss cycles
system.cpu0.dcache.StoreCondReq_miss_latency::switch_cpus0.data     29835000                       # number of StoreCondReq miss cycles
system.cpu0.dcache.StoreCondReq_miss_latency::total     29835000                       # number of StoreCondReq miss cycles
system.cpu0.dcache.StoreCondFailReq_miss_latency::switch_cpus0.data        78000                       # number of StoreCondFailReq miss cycles
system.cpu0.dcache.StoreCondFailReq_miss_latency::total        78000                       # number of StoreCondFailReq miss cycles
system.cpu0.dcache.demand_miss_latency::switch_cpus0.data 1356965754199                       # number of demand (read+write) miss cycles
system.cpu0.dcache.demand_miss_latency::total 1356965754199                       # number of demand (read+write) miss cycles
system.cpu0.dcache.overall_miss_latency::switch_cpus0.data 1356965754199                       # number of overall miss cycles
system.cpu0.dcache.overall_miss_latency::total 1356965754199                       # number of overall miss cycles
system.cpu0.dcache.ReadReq_accesses::switch_cpus0.data    123333757                       # number of ReadReq accesses(hits+misses)
system.cpu0.dcache.ReadReq_accesses::total    123333757                       # number of ReadReq accesses(hits+misses)
system.cpu0.dcache.WriteReq_accesses::switch_cpus0.data     47813013                       # number of WriteReq accesses(hits+misses)
system.cpu0.dcache.WriteReq_accesses::total     47813013                       # number of WriteReq accesses(hits+misses)
system.cpu0.dcache.SoftPFReq_accesses::switch_cpus0.data        95344                       # number of SoftPFReq accesses(hits+misses)
system.cpu0.dcache.SoftPFReq_accesses::total        95344                       # number of SoftPFReq accesses(hits+misses)
system.cpu0.dcache.LoadLockedReq_accesses::switch_cpus0.data       244048                       # number of LoadLockedReq accesses(hits+misses)
system.cpu0.dcache.LoadLockedReq_accesses::total       244048                       # number of LoadLockedReq accesses(hits+misses)
system.cpu0.dcache.StoreCondReq_accesses::switch_cpus0.data       242284                       # number of StoreCondReq accesses(hits+misses)
system.cpu0.dcache.StoreCondReq_accesses::total       242284                       # number of StoreCondReq accesses(hits+misses)
system.cpu0.dcache.demand_accesses::switch_cpus0.data    171146770                       # number of demand (read+write) accesses
system.cpu0.dcache.demand_accesses::total    171146770                       # number of demand (read+write) accesses
system.cpu0.dcache.overall_accesses::switch_cpus0.data    171242114                       # number of overall (read+write) accesses
system.cpu0.dcache.overall_accesses::total    171242114                       # number of overall (read+write) accesses
system.cpu0.dcache.ReadReq_miss_rate::switch_cpus0.data     0.210243                       # miss rate for ReadReq accesses
system.cpu0.dcache.ReadReq_miss_rate::total     0.210243                       # miss rate for ReadReq accesses
system.cpu0.dcache.WriteReq_miss_rate::switch_cpus0.data     0.026615                       # miss rate for WriteReq accesses
system.cpu0.dcache.WriteReq_miss_rate::total     0.026615                       # miss rate for WriteReq accesses
system.cpu0.dcache.SoftPFReq_miss_rate::switch_cpus0.data     0.554508                       # miss rate for SoftPFReq accesses
system.cpu0.dcache.SoftPFReq_miss_rate::total     0.554508                       # miss rate for SoftPFReq accesses
system.cpu0.dcache.LoadLockedReq_miss_rate::switch_cpus0.data     0.020603                       # miss rate for LoadLockedReq accesses
system.cpu0.dcache.LoadLockedReq_miss_rate::total     0.020603                       # miss rate for LoadLockedReq accesses
system.cpu0.dcache.StoreCondReq_miss_rate::switch_cpus0.data     0.019704                       # miss rate for StoreCondReq accesses
system.cpu0.dcache.StoreCondReq_miss_rate::total     0.019704                       # miss rate for StoreCondReq accesses
system.cpu0.dcache.demand_miss_rate::switch_cpus0.data     0.158943                       # miss rate for demand accesses
system.cpu0.dcache.demand_miss_rate::total     0.158943                       # miss rate for demand accesses
system.cpu0.dcache.overall_miss_rate::switch_cpus0.data     0.159164                       # miss rate for overall accesses
system.cpu0.dcache.overall_miss_rate::total     0.159164                       # miss rate for overall accesses
system.cpu0.dcache.ReadReq_avg_miss_latency::switch_cpus0.data 51173.459658                       # average ReadReq miss latency
system.cpu0.dcache.ReadReq_avg_miss_latency::total 51173.459658                       # average ReadReq miss latency
system.cpu0.dcache.WriteReq_avg_miss_latency::switch_cpus0.data 23600.292485                       # average WriteReq miss latency
system.cpu0.dcache.WriteReq_avg_miss_latency::total 23600.292485                       # average WriteReq miss latency
system.cpu0.dcache.LoadLockedReq_avg_miss_latency::switch_cpus0.data 39337.708831                       # average LoadLockedReq miss latency
system.cpu0.dcache.LoadLockedReq_avg_miss_latency::total 39337.708831                       # average LoadLockedReq miss latency
system.cpu0.dcache.StoreCondReq_avg_miss_latency::switch_cpus0.data  6249.476330                       # average StoreCondReq miss latency
system.cpu0.dcache.StoreCondReq_avg_miss_latency::total  6249.476330                       # average StoreCondReq miss latency
system.cpu0.dcache.StoreCondFailReq_avg_miss_latency::switch_cpus0.data          inf                       # average StoreCondFailReq miss latency
system.cpu0.dcache.StoreCondFailReq_avg_miss_latency::total          inf                       # average StoreCondFailReq miss latency
system.cpu0.dcache.demand_avg_miss_latency::switch_cpus0.data 49883.586864                       # average overall miss latency
system.cpu0.dcache.demand_avg_miss_latency::total 49883.586864                       # average overall miss latency
system.cpu0.dcache.overall_avg_miss_latency::switch_cpus0.data 49786.824980                       # average overall miss latency
system.cpu0.dcache.overall_avg_miss_latency::total 49786.824980                       # average overall miss latency
system.cpu0.dcache.blocked_cycles::no_mshrs      2003773                       # number of cycles access was blocked
system.cpu0.dcache.blocked_cycles::no_targets     34885887                       # number of cycles access was blocked
system.cpu0.dcache.blocked::no_mshrs            40194                       # number of cycles access was blocked
system.cpu0.dcache.blocked::no_targets         351506                       # number of cycles access was blocked
system.cpu0.dcache.avg_blocked_cycles::no_mshrs    49.852540                       # average number of cycles each access was blocked
system.cpu0.dcache.avg_blocked_cycles::no_targets    99.246918                       # average number of cycles each access was blocked
system.cpu0.dcache.writebacks::writebacks     12148525                       # number of writebacks
system.cpu0.dcache.writebacks::total         12148525                       # number of writebacks
system.cpu0.dcache.ReadReq_mshr_hits::switch_cpus0.data     14107773                       # number of ReadReq MSHR hits
[...]
system.switch_cpus3.commit.op_class_0::SimdFloatAlu            0      0.00%     64.73% # Class of committed instruction
system.switch_cpus3.commit.op_class_0::SimdFloatCmp            5      0.00%     64.73% # Class of committed instruction
system.switch_cpus3.commit.op_class_0::SimdFloatCvt            4      0.00%     64.73% # Class of committed instruction
system.switch_cpus3.commit.op_class_0::SimdFloatDiv            0      0.00%     64.73% # Class of committed instruction
system.switch_cpus3.commit.op_class_0::SimdFloatMisc          760      0.00%     64.73% # Class of committed instruction
system.switch_cpus3.commit.op_class_0::SimdFloatMult            2      0.00%     64.73% # Class of committed instruction
system.switch_cpus3.commit.op_class_0::SimdFloatMultAcc            0      0.00%     64.73% # Class of committed instruction
system.switch_cpus3.commit.op_class_0::SimdFloatSqrt            0      0.00%     64.73% # Class of committed instruction
system.switch_cpus3.commit.op_class_0::MemRead    215610526     17.76%     82.49% # Class of committed instruction
system.switch_cpus3.commit.op_class_0::MemWrite    212652634     17.51%    100.00% # Class of committed instruction
system.switch_cpus3.commit.op_class_0::IprAccess            0      0.00%    100.00% # Class of committed instruction
system.switch_cpus3.commit.op_class_0::InstPrefetch            0      0.00%    100.00% # Class of committed instruction
system.switch_cpus3.commit.op_class_0::total   1214147924                       # Class of committed instruction
system.switch_cpus3.commit.bw_lim_events     28629025                       # number cycles where commit BW limit reached
system.switch_cpus3.rob.rob_reads          2159277562                       # The number of ROB reads
system.switch_cpus3.rob.rob_writes         2661136125                       # The number of ROB writes
system.switch_cpus3.timesIdled                 628639                       # Number of times that the entire CPU went into an idle state and unscheduled itself
system.switch_cpus3.idleCycles              112902856                       # Total number of cycles that the CPU has spent unscheduled due to idling
system.switch_cpus3.quiesceCycles             9074261                       # Total number of cycles that CPU has spent quiesced or waiting for an interrupt
system.switch_cpus3.committedInsts          975099580                       # Number of Instructions Simulated
system.switch_cpus3.committedOps           1214124210                       # Number of Ops (including micro ops) Simulated
system.switch_cpus3.cpi                      1.025691                       # CPI: Cycles Per Instruction
system.switch_cpus3.cpi_total                1.025691                       # CPI: Total CPI of All Threads
system.switch_cpus3.ipc                      0.974952                       # IPC: Instructions Per Cycle
system.switch_cpus3.ipc_total                0.974952                       # IPC: Total IPC of All Threads
system.switch_cpus3.int_regfile_reads      1427476469                       # number of integer regfile reads
system.switch_cpus3.int_regfile_writes      735633991                       # number of integer regfile writes
system.switch_cpus3.fp_regfile_reads             3371                       # number of floating regfile reads
system.switch_cpus3.fp_regfile_writes            1886                       # number of floating regfile writes
system.switch_cpus3.cc_regfile_reads       4460567106                       # number of cc regfile reads
system.switch_cpus3.cc_regfile_writes       704024316                       # number of cc regfile writes
system.switch_cpus3.misc_regfile_reads     2238880375                       # number of misc regfile reads
system.switch_cpus3.misc_regfile_writes       4082442                       # number of misc regfile writes
system.tol2bus.snoop_filter.tot_requests     65210709                       # Total number of requests made to the snoop filter.
system.tol2bus.snoop_filter.hit_single_requests     32358762                       # Number of requests hitting in the snoop filter with a single holder of the requested data.
system.tol2bus.snoop_filter.hit_multi_requests      1785903                       # Number of requests hitting in the snoop filter with multiple (>1) holders of the requested data.
system.tol2bus.snoop_filter.tot_snoops         107409                       # Total number of snoops made to the snoop filter.
system.tol2bus.snoop_filter.hit_single_snoops       102546                       # Number of snoops hitting in the snoop filter with a single holder of the requested data.
system.tol2bus.snoop_filter.hit_multi_snoops         4863                       # Number of snoops hitting in the snoop filter with multiple (>1) holders of the requested data.
system.tol2bus.pwrStateResidencyTicks::UNDEFINED 3741162140500                       # Cumulative time (in ticks) in various power states
system.tol2bus.trans_dist::ReadReq               4496                       # Transaction distribution
system.tol2bus.trans_dist::ReadResp          25163840                       # Transaction distribution
system.tol2bus.trans_dist::WriteReq              5392                       # Transaction distribution
system.tol2bus.trans_dist::WriteResp             5392                       # Transaction distribution
system.tol2bus.trans_dist::WritebackDirty     20641260                       # Transaction distribution
system.tol2bus.trans_dist::WritebackClean     20325016                       # Transaction distribution
system.tol2bus.trans_dist::CleanEvict         3730297                       # Transaction distribution
system.tol2bus.trans_dist::HardPFReq         10037720                       # Transaction distribution
system.tol2bus.trans_dist::UpgradeReq          132131                       # Transaction distribution
system.tol2bus.trans_dist::SCUpgradeReq         16502                       # Transaction distribution
system.tol2bus.trans_dist::UpgradeResp         148633                       # Transaction distribution
system.tol2bus.trans_dist::SCUpgradeFailReq           10                       # Transaction distribution
system.tol2bus.trans_dist::UpgradeFailResp           10                       # Transaction distribution
system.tol2bus.trans_dist::ReadExReq          7456345                       # Transaction distribution
system.tol2bus.trans_dist::ReadExResp         7456345                       # Transaction distribution
system.tol2bus.trans_dist::ReadCleanReq      11781033                       # Transaction distribution
system.tol2bus.trans_dist::ReadSharedReq     13378342                       # Transaction distribution
system.tol2bus.trans_dist::InvalidateReq         6943                       # Transaction distribution
system.tol2bus.pkt_count_system.cpu0.icache.mem_side::system.l2.cpu_side      2963921                       # Packet count per connected master and slave (bytes)
system.tol2bus.pkt_count_system.cpu0.dcache.mem_side::system.l2.cpu_side     36485424                       # Packet count per connected master and slave (bytes)
system.tol2bus.pkt_count_system.cpu0.itb_walker_cache.mem_side::system.l2.cpu_side         2929                       # Packet count per connected master and slave (bytes)
system.tol2bus.pkt_count_system.cpu0.dtb_walker_cache.mem_side::system.l2.cpu_side      4585449                       # Packet count per connected master and slave (bytes)
system.tol2bus.pkt_count_system.cpu1.icache.mem_side::system.l2.cpu_side      2668087                       # Packet count per connected master and slave (bytes)
system.tol2bus.pkt_count_system.cpu1.dcache.mem_side::system.l2.cpu_side      1093321                       # Packet count per connected master and slave (bytes)
system.tol2bus.pkt_count_system.cpu1.itb_walker_cache.mem_side::system.l2.cpu_side         9466                       # Packet count per connected master and slave (bytes)
system.tol2bus.pkt_count_system.cpu1.dtb_walker_cache.mem_side::system.l2.cpu_side        27362                       # Packet count per connected master and slave (bytes)
system.tol2bus.pkt_count_system.cpu2.icache.mem_side::system.l2.cpu_side      5789447                       # Packet count per connected master and slave (bytes)
system.tol2bus.pkt_count_system.cpu2.dcache.mem_side::system.l2.cpu_side     23525782                       # Packet count per connected master and slave (bytes)
system.tol2bus.pkt_count_system.cpu2.itb_walker_cache.mem_side::system.l2.cpu_side         2704                       # Packet count per connected master and slave (bytes)
system.tol2bus.pkt_count_system.cpu2.dtb_walker_cache.mem_side::system.l2.cpu_side       165996                       # Packet count per connected master and slave (bytes)
system.tol2bus.pkt_count_system.cpu3.icache.mem_side::system.l2.cpu_side     18837755                       # Packet count per connected master and slave (bytes)
system.tol2bus.pkt_count_system.cpu3.dcache.mem_side::system.l2.cpu_side      1613304                       # Packet count per connected master and slave (bytes)
system.tol2bus.pkt_count_system.cpu3.itb_walker_cache.mem_side::system.l2.cpu_side         4588                       # Packet count per connected master and slave (bytes)
system.tol2bus.pkt_count_system.cpu3.dtb_walker_cache.mem_side::system.l2.cpu_side        16335                       # Packet count per connected master and slave (bytes)
system.tol2bus.pkt_count::total              97791870                       # Packet count per connected master and slave (bytes)
system.tol2bus.pkt_size_system.cpu0.icache.mem_side::system.l2.cpu_side    126459136                       # Cumulative packet size per connected master and slave (bytes)
system.tol2bus.pkt_size_system.cpu0.dcache.mem_side::system.l2.cpu_side   1554840868                       # Cumulative packet size per connected master and slave (bytes)
system.tol2bus.pkt_size_system.cpu0.itb_walker_cache.mem_side::system.l2.cpu_side        84480                       # Cumulative packet size per connected master and slave (bytes)
system.tol2bus.pkt_size_system.cpu0.dtb_walker_cache.mem_side::system.l2.cpu_side    195510272                       # Cumulative packet size per connected master and slave (bytes)
system.tol2bus.pkt_size_system.cpu1.icache.mem_side::system.l2.cpu_side    113837760                       # Cumulative packet size per connected master and slave (bytes)
system.tol2bus.pkt_size_system.cpu1.dcache.mem_side::system.l2.cpu_side     45614562                       # Cumulative packet size per connected master and slave (bytes)
system.tol2bus.pkt_size_system.cpu1.itb_walker_cache.mem_side::system.l2.cpu_side       315904                       # Cumulative packet size per connected master and slave (bytes)
system.tol2bus.pkt_size_system.cpu1.dtb_walker_cache.mem_side::system.l2.cpu_side      1023808                       # Cumulative packet size per connected master and slave (bytes)
system.tol2bus.pkt_size_system.cpu2.icache.mem_side::system.l2.cpu_side    247015936                       # Cumulative packet size per connected master and slave (bytes)
system.tol2bus.pkt_size_system.cpu2.dcache.mem_side::system.l2.cpu_side    993348472                       # Cumulative packet size per connected master and slave (bytes)
system.tol2bus.pkt_size_system.cpu2.itb_walker_cache.mem_side::system.l2.cpu_side        78464                       # Cumulative packet size per connected master and slave (bytes)
system.tol2bus.pkt_size_system.cpu2.dtb_walker_cache.mem_side::system.l2.cpu_side      1955136                       # Cumulative packet size per connected master and slave (bytes)
system.tol2bus.pkt_size_system.cpu3.icache.mem_side::system.l2.cpu_side    803744000                       # Cumulative packet size per connected master and slave (bytes)
system.tol2bus.pkt_size_system.cpu3.dcache.mem_side::system.l2.cpu_side     68025584                       # Cumulative packet size per connected master and slave (bytes)
system.tol2bus.pkt_size_system.cpu3.itb_walker_cache.mem_side::system.l2.cpu_side       133312                       # Cumulative packet size per connected master and slave (bytes)
system.tol2bus.pkt_size_system.cpu3.dtb_walker_cache.mem_side::system.l2.cpu_side       594176                       # Cumulative packet size per connected master and slave (bytes)
system.tol2bus.pkt_size::total             4152581870                       # Cumulative packet size per connected master and slave (bytes)
system.tol2bus.snoops                        22498798                       # Total snoops (count)
system.tol2bus.snoopTraffic                 556745152                       # Total snoop traffic (bytes)
system.tol2bus.snoop_fanout::samples         55073493                       # Request fanout histogram
system.tol2bus.snoop_fanout::mean            0.039038                       # Request fanout histogram
system.tol2bus.snoop_fanout::stdev           0.231694                       # Request fanout histogram
system.tol2bus.snoop_fanout::underflows             0      0.00%      0.00% # Request fanout histogram
system.tol2bus.snoop_fanout::0               53268827     96.72%     96.72% # Request fanout histogram
system.tol2bus.snoop_fanout::1                1537211      2.79%     99.51% # Request fanout histogram
system.tol2bus.snoop_fanout::2                 202910      0.37%     99.88% # Request fanout histogram
system.tol2bus.snoop_fanout::3                  57447      0.10%     99.99% # Request fanout histogram
system.tol2bus.snoop_fanout::4                   3022      0.01%     99.99% # Request fanout histogram
system.tol2bus.snoop_fanout::5                   2381      0.00%    100.00% # Request fanout histogram
system.tol2bus.snoop_fanout::6                   1263      0.00%    100.00% # Request fanout histogram
system.tol2bus.snoop_fanout::7                    432      0.00%    100.00% # Request fanout histogram
system.tol2bus.snoop_fanout::8                      0      0.00%    100.00% # Request fanout histogram
system.tol2bus.snoop_fanout::9                      0      0.00%    100.00% # Request fanout histogram
system.tol2bus.snoop_fanout::10                     0      0.00%    100.00% # Request fanout histogram
system.tol2bus.snoop_fanout::11                     0      0.00%    100.00% # Request fanout histogram
system.tol2bus.snoop_fanout::12                     0      0.00%    100.00% # Request fanout histogram
system.tol2bus.snoop_fanout::13                     0      0.00%    100.00% # Request fanout histogram
system.tol2bus.snoop_fanout::14                     0      0.00%    100.00% # Request fanout histogram
system.tol2bus.snoop_fanout::15                     0      0.00%    100.00% # Request fanout histogram
system.tol2bus.snoop_fanout::16                     0      0.00%    100.00% # Request fanout histogram
system.tol2bus.snoop_fanout::overflows              0      0.00%    100.00% # Request fanout histogram
system.tol2bus.snoop_fanout::min_value              0                       # Request fanout histogram
system.tol2bus.snoop_fanout::max_value              7                       # Request fanout histogram
system.tol2bus.snoop_fanout::total           55073493                       # Request fanout histogram
system.tol2bus.reqLayer0.occupancy        65058535690                       # Layer occupancy (ticks)
system.tol2bus.reqLayer0.utilization             12.9                       # Layer utilization (%)
system.tol2bus.snoopLayer0.occupancy          1540553                       # Layer occupancy (ticks)
system.tol2bus.snoopLayer0.utilization            0.0                       # Layer utilization (%)
system.tol2bus.respLayer0.occupancy        1484652680                       # Layer occupancy (ticks)
system.tol2bus.respLayer0.utilization             0.3                       # Layer utilization (%)
system.tol2bus.respLayer1.occupancy       18301963219                       # Layer occupancy (ticks)
system.tol2bus.respLayer1.utilization             3.6                       # Layer utilization (%)
system.tol2bus.respLayer2.occupancy           2421982                       # Layer occupancy (ticks)
system.tol2bus.respLayer2.utilization             0.0                       # Layer utilization (%)
system.tol2bus.respLayer3.occupancy        2297573129                       # Layer occupancy (ticks)
system.tol2bus.respLayer3.utilization             0.5                       # Layer utilization (%)
system.tol2bus.respLayer4.occupancy        1338629339                       # Layer occupancy (ticks)
system.tol2bus.respLayer4.utilization             0.3                       # Layer utilization (%)
system.tol2bus.respLayer5.occupancy         556001557                       # Layer occupancy (ticks)
system.tol2bus.respLayer5.utilization             0.1                       # Layer utilization (%)
system.tol2bus.respLayer6.occupancy           6827934                       # Layer occupancy (ticks)
system.tol2bus.respLayer6.utilization             0.0                       # Layer utilization (%)
system.tol2bus.respLayer7.occupancy          17119855                       # Layer occupancy (ticks)
system.tol2bus.respLayer7.utilization             0.0                       # Layer utilization (%)
system.tol2bus.respLayer8.occupancy        2900637651                       # Layer occupancy (ticks)
system.tol2bus.respLayer8.utilization             0.6                       # Layer utilization (%)
system.tol2bus.respLayer9.occupancy       11739650535                       # Layer occupancy (ticks)
system.tol2bus.respLayer9.utilization             2.3                       # Layer utilization (%)
system.tol2bus.respLayer10.occupancy          2223985                       # Layer occupancy (ticks)
system.tol2bus.respLayer10.utilization            0.0                       # Layer utilization (%)
system.tol2bus.respLayer11.occupancy        203304231                       # Layer occupancy (ticks)
system.tol2bus.respLayer11.utilization            0.0                       # Layer utilization (%)
system.tol2bus.respLayer12.occupancy       9431624613                       # Layer occupancy (ticks)
system.tol2bus.respLayer12.utilization            1.9                       # Layer utilization (%)
system.tol2bus.respLayer13.occupancy        814986654                       # Layer occupancy (ticks)
system.tol2bus.respLayer13.utilization            0.2                       # Layer utilization (%)
system.tol2bus.respLayer14.occupancy          3767979                       # Layer occupancy (ticks)
system.tol2bus.respLayer14.utilization            0.0                       # Layer utilization (%)
system.tol2bus.respLayer15.occupancy         10616919                       # Layer occupancy (ticks)
system.tol2bus.respLayer15.utilization            0.0                       # Layer utilization (%)
system.switch_cpus0.kern.inst.arm                   0                       # number of arm instructions executed
system.switch_cpus0.kern.inst.quiesce               0                       # number of quiesce instructions executed
system.switch_cpus1.kern.inst.arm                   0                       # number of arm instructions executed
system.switch_cpus1.kern.inst.quiesce               0                       # number of quiesce instructions executed
system.switch_cpus2.kern.inst.arm                   0                       # number of arm instructions executed
system.switch_cpus2.kern.inst.quiesce               0                       # number of quiesce instructions executed
system.switch_cpus3.kern.inst.arm                   0                       # number of arm instructions executed
system.switch_cpus3.kern.inst.quiesce               0                       # number of quiesce instructions executed

---------- End Simulation Statistics   ----------
