
---------- Begin Simulation Statistics ----------
sim_seconds                                  0.517150                       # Number of seconds simulated
sim_ticks                                517150242500                       # Number of ticks simulated
final_tick                               3753703640500                       # Number of ticks from beginning of simulation (restored from checkpoints and never reset)
sim_freq                                 1000000000000                       # Frequency of simulated ticks
host_inst_rate                                 102853                       # Simulator instruction rate (inst/s)
host_op_rate                                   122747                       # Simulator op (including micro ops) rate (op/s)
host_tick_rate                               17846557                       # Simulator tick rate (ticks/s)
host_mem_usage                                2649776                       # Number of bytes of host memory used
host_seconds                                 28977.59                       # Real time elapsed on the host
sim_insts                                  2980431128                       # Number of instructions simulated
sim_ops                                    3556899178                       # Number of ops (including micro ops) simulated
system.voltage_domain.voltage                       1                       # Voltage in Volts
system.clk_domain.clock                          1000                       # Clock period in ticks
system.mem_ctrls.pwrStateResidencyTicks::UNDEFINED 3753703640500                       # Cumulative time (in ticks) in various power states
system.mem_ctrls.bytes_read::l2.prefetcher    467896832                       # Number of bytes read from this memory
system.mem_ctrls.bytes_read::switch_cpus0.dtb.walker      4712704                       # Number of bytes read from this memory
system.mem_ctrls.bytes_read::switch_cpus0.itb.walker        24320                       # Number of bytes read from this memory
system.mem_ctrls.bytes_read::switch_cpus0.inst     11128000                       # Number of bytes read from this memory
system.mem_ctrls.bytes_read::switch_cpus0.data    243071872                       # Number of bytes read from this memory
system.mem_ctrls.bytes_read::switch_cpus1.dtb.walker       345856                       # Number of bytes read from this memory
system.mem_ctrls.bytes_read::switch_cpus1.itb.walker       128960                       # Number of bytes read from this memory
system.mem_ctrls.bytes_read::switch_cpus1.inst     18338240                       # Number of bytes read from this memory
system.mem_ctrls.bytes_read::switch_cpus1.data      7045312                       # Number of bytes read from this memory
system.mem_ctrls.bytes_read::switch_cpus2.dtb.walker       463936                       # Number of bytes read from this memory
system.mem_ctrls.bytes_read::switch_cpus2.itb.walker        19712                       # Number of bytes read from this memory
system.mem_ctrls.bytes_read::switch_cpus2.inst     26983680                       # Number of bytes read from this memory
system.mem_ctrls.bytes_read::switch_cpus2.data     50539008                       # Number of bytes read from this memory
system.mem_ctrls.bytes_read::switch_cpus3.dtb.walker       170112                       # Number of bytes read from this memory
system.mem_ctrls.bytes_read::switch_cpus3.itb.walker        43072                       # Number of bytes read from this memory
system.mem_ctrls.bytes_read::switch_cpus3.inst     44712000                       # Number of bytes read from this memory
system.mem_ctrls.bytes_read::switch_cpus3.data     11545600                       # Number of bytes read from this memory
system.mem_ctrls.bytes_read::total          887169216                       # Number of bytes read from this memory
system.mem_ctrls.bytes_inst_read::switch_cpus0.inst     11128000                       # Number of instructions bytes read from this memory
system.mem_ctrls.bytes_inst_read::switch_cpus1.inst     18338240                       # Number of instructions bytes read from this memory
system.mem_ctrls.bytes_inst_read::switch_cpus2.inst     26983680                       # Number of instructions bytes read from this memory
system.mem_ctrls.bytes_inst_read::switch_cpus3.inst     44712000                       # Number of instructions bytes read from this memory
system.mem_ctrls.bytes_inst_read::total     101161920                       # Number of instructions bytes read from this memory
system.mem_ctrls.bytes_written::writebacks    556100032                       # Number of bytes written to this memory
system.mem_ctrls.bytes_written::total       556100032                       # Number of bytes written to this memory
system.mem_ctrls.num_reads::l2.prefetcher      7310888                       # Number of read requests responded to by this memory
system.mem_ctrls.num_reads::switch_cpus0.dtb.walker        73636                       # Number of read requests responded to by this memory
system.mem_ctrls.num_reads::switch_cpus0.itb.walker          380                       # Number of read requests responded to by this memory
system.mem_ctrls.num_reads::switch_cpus0.inst       173875                       # Number of read requests responded to by this memory
system.mem_ctrls.num_reads::switch_cpus0.data      3797998                       # Number of read requests responded to by this memory
system.mem_ctrls.num_reads::switch_cpus1.dtb.walker         5404                       # Number of read requests responded to by this memory
system.mem_ctrls.num_reads::switch_cpus1.itb.walker         2015                       # Number of read requests responded to by this memory
system.mem_ctrls.num_reads::switch_cpus1.inst       286535                       # Number of read requests responded to by this memory
system.mem_ctrls.num_reads::switch_cpus1.data       110083                       # Number of read requests responded to by this memory
system.mem_ctrls.num_reads::switch_cpus2.dtb.walker         7249                       # Number of read requests responded to by this memory
system.mem_ctrls.num_reads::switch_cpus2.itb.walker          308                       # Number of read requests responded to by this memory
system.mem_ctrls.num_reads::switch_cpus2.inst       421620                       # Number of read requests responded to by this memory
system.mem_ctrls.num_reads::switch_cpus2.data       789672                       # Number of read requests responded to by this memory
system.mem_ctrls.num_reads::switch_cpus3.dtb.walker         2658                       # Number of read requests responded to by this memory
system.mem_ctrls.num_reads::switch_cpus3.itb.walker          673                       # Number of read requests responded to by this memory
system.mem_ctrls.num_reads::switch_cpus3.inst       698625                       # Number of read requests responded to by this memory
system.mem_ctrls.num_reads::switch_cpus3.data       180400                       # Number of read requests responded to by this memory
system.mem_ctrls.num_reads::total            13862019                       # Number of read requests responded to by this memory
system.mem_ctrls.num_writes::writebacks       8689063                       # Number of write requests responded to by this memory
system.mem_ctrls.num_writes::total            8689063                       # Number of write requests responded to by this memory
system.mem_ctrls.bw_read::l2.prefetcher     904759959                       # Total read bandwidth from this memory (bytes/s)
system.mem_ctrls.bw_read::switch_cpus0.dtb.walker      9112833                       # Total read bandwidth from this memory (bytes/s)
system.mem_ctrls.bw_read::switch_cpus0.itb.walker        47027                       # Total read bandwidth from this memory (bytes/s)
system.mem_ctrls.bw_read::switch_cpus0.inst     21517925                       # Total read bandwidth from this memory (bytes/s)
system.mem_ctrls.bw_read::switch_cpus0.data    470021769                       # Total read bandwidth from this memory (bytes/s)
system.mem_ctrls.bw_read::switch_cpus1.dtb.walker       668773                       # Total read bandwidth from this memory (bytes/s)
system.mem_ctrls.bw_read::switch_cpus1.itb.walker       249367                       # Total read bandwidth from this memory (bytes/s)
system.mem_ctrls.bw_read::switch_cpus1.inst     35460179                       # Total read bandwidth from this memory (bytes/s)
system.mem_ctrls.bw_read::switch_cpus1.data     13623337                       # Total read bandwidth from this memory (bytes/s)
system.mem_ctrls.bw_read::switch_cpus2.dtb.walker       897101                       # Total read bandwidth from this memory (bytes/s)
system.mem_ctrls.bw_read::switch_cpus2.itb.walker        38117                       # Total read bandwidth from this memory (bytes/s)
system.mem_ctrls.bw_read::switch_cpus2.inst     52177642                       # Total read bandwidth from this memory (bytes/s)
system.mem_ctrls.bw_read::switch_cpus2.data     97725968                       # Total read bandwidth from this memory (bytes/s)
system.mem_ctrls.bw_read::switch_cpus3.dtb.walker       328941                       # Total read bandwidth from this memory (bytes/s)
system.mem_ctrls.bw_read::switch_cpus3.itb.walker        83287                       # Total read bandwidth from this memory (bytes/s)
system.mem_ctrls.bw_read::switch_cpus3.inst     86458434                       # Total read bandwidth from this memory (bytes/s)
system.mem_ctrls.bw_read::switch_cpus3.data     22325427                       # Total read bandwidth from this memory (bytes/s)
system.mem_ctrls.bw_read::total            1715496084                       # Total read bandwidth from this memory (bytes/s)
system.mem_ctrls.bw_inst_read::switch_cpus0.inst     21517925                       # Instruction read bandwidth from this memory (bytes/s)
system.mem_ctrls.bw_inst_read::switch_cpus1.inst     35460179                       # Instruction read bandwidth from this memory (bytes/s)
system.mem_ctrls.bw_inst_read::switch_cpus2.inst     52177642                       # Instruction read bandwidth from this memory (bytes/s)
system.mem_ctrls.bw_inst_read::switch_cpus3.inst     86458434                       # Instruction read bandwidth from this memory (bytes/s)
system.mem_ctrls.bw_inst_read::total        195614179                       # Instruction read bandwidth from this memory (bytes/s)
system.mem_ctrls.bw_write::writebacks      1075316197                       # Write bandwidth from this memory (bytes/s)
system.mem_ctrls.bw_write::total           1075316197                       # Write bandwidth from this memory (bytes/s)
system.mem_ctrls.bw_total::writebacks      1075316197                       # Total bandwidth to/from this memory (bytes/s)
system.mem_ctrls.bw_total::l2.prefetcher    904759959                       # Total bandwidth to/from this memory (bytes/s)
system.mem_ctrls.bw_total::switch_cpus0.dtb.walker      9112833                       # Total bandwidth to/from this memory (bytes/s)
system.mem_ctrls.bw_total::switch_cpus0.itb.walker        47027                       # Total bandwidth to/from this memory (bytes/s)
system.mem_ctrls.bw_total::switch_cpus0.inst     21517925                       # Total bandwidth to/from this memory (bytes/s)
system.mem_ctrls.bw_total::switch_cpus0.data    470021769                       # Total bandwidth to/from this memory (bytes/s)
system.mem_ctrls.bw_total::switch_cpus1.dtb.walker       668773                       # Total bandwidth to/from this memory (bytes/s)
system.mem_ctrls.bw_total::switch_cpus1.itb.walker       249367                       # Total bandwidth to/from this memory (bytes/s)
system.mem_ctrls.bw_total::switch_cpus1.inst     35460179                       # Total bandwidth to/from this memory (bytes/s)
system.mem_ctrls.bw_total::switch_cpus1.data     13623337                       # Total bandwidth to/from this memory (bytes/s)
system.mem_ctrls.bw_total::switch_cpus2.dtb.walker       897101                       # Total bandwidth to/from this memory (bytes/s)
system.mem_ctrls.bw_total::switch_cpus2.itb.walker        38117                       # Total bandwidth to/from this memory (bytes/s)
system.mem_ctrls.bw_total::switch_cpus2.inst     52177642                       # Total bandwidth to/from this memory (bytes/s)
system.mem_ctrls.bw_total::switch_cpus2.data     97725968                       # Total bandwidth to/from this memory (bytes/s)
system.mem_ctrls.bw_total::switch_cpus3.dtb.walker       328941                       # Total bandwidth to/from this memory (bytes/s)
system.mem_ctrls.bw_total::switch_cpus3.itb.walker        83287                       # Total bandwidth to/from this memory (bytes/s)
system.mem_ctrls.bw_total::switch_cpus3.inst     86458434                       # Total bandwidth to/from this memory (bytes/s)
system.mem_ctrls.bw_total::switch_cpus3.data     22325427                       # Total bandwidth to/from this memory (bytes/s)
system.mem_ctrls.bw_total::total           2790812281                       # Total bandwidth to/from this memory (bytes/s)
system.mem_ctrls.readReqs                    13862020                       # Number of read requests accepted
system.mem_ctrls.writeReqs                    8689063                       # Number of write requests accepted
system.mem_ctrls.readBursts                  13862020                       # Number of DRAM read bursts, including those serviced by the write queue
system.mem_ctrls.writeBursts                  8689063                       # Number of DRAM write bursts, including those merged in the write queue
system.mem_ctrls.bytesReadDRAM              886766592                       # Total number of bytes read from DRAM
system.mem_ctrls.bytesReadWrQ                  402688                       # Total number of bytes read from write queue
system.mem_ctrls.bytesWritten               556098304                       # Total number of bytes written to DRAM
system.mem_ctrls.bytesReadSys               887169280                       # Total read bytes from the system interface side
system.mem_ctrls.bytesWrittenSys            556100032                       # Total written bytes from the system interface side
system.mem_ctrls.servicedByWrQ                   6292                       # Number of DRAM read bursts serviced by the write queue
system.mem_ctrls.mergedWrBursts                     1                       # Number of DRAM write bursts merged with an existing one
system.mem_ctrls.neitherReadNorWriteReqs            0                       # Number of requests that are neither read nor write
system.mem_ctrls.perBankRdBursts::0            759656                       # Per bank write bursts
system.mem_ctrls.perBankRdBursts::1            866238                       # Per bank write bursts
system.mem_ctrls.perBankRdBursts::2            938308                       # Per bank write bursts
system.mem_ctrls.perBankRdBursts::3            877108                       # Per bank write bursts
system.mem_ctrls.perBankRdBursts::4            800773                       # Per bank write bursts
system.mem_ctrls.perBankRdBursts::5            888040                       # Per bank write bursts
system.mem_ctrls.perBankRdBursts::6            869596                       # Per bank write bursts
system.mem_ctrls.perBankRdBursts::7            850421                       # Per bank write bursts
system.mem_ctrls.perBankRdBursts::8            928437                       # Per bank write bursts
system.mem_ctrls.perBankRdBursts::9            839223                       # Per bank write bursts
system.mem_ctrls.perBankRdBursts::10           794692                       # Per bank write bursts
system.mem_ctrls.perBankRdBursts::11          1036974                       # Per bank write bursts
system.mem_ctrls.perBankRdBursts::12           738623                       # Per bank write bursts
system.mem_ctrls.perBankRdBursts::13           830366                       # Per bank write bursts
system.mem_ctrls.perBankRdBursts::14          1025528                       # Per bank write bursts
system.mem_ctrls.perBankRdBursts::15           811745                       # Per bank write bursts
system.mem_ctrls.perBankWrBursts::0            527525                       # Per bank write bursts
system.mem_ctrls.perBankWrBursts::1            542145                       # Per bank write bursts
system.mem_ctrls.perBankWrBursts::2            554047                       # Per bank write bursts
system.mem_ctrls.perBankWrBursts::3            557564                       # Per bank write bursts
system.mem_ctrls.perBankWrBursts::4            538506                       # Per bank write bursts
system.mem_ctrls.perBankWrBursts::5            554617                       # Per bank write bursts
system.mem_ctrls.perBankWrBursts::6            563021                       # Per bank write bursts
system.mem_ctrls.perBankWrBursts::7            536323                       # Per bank write bursts
system.mem_ctrls.perBankWrBursts::8            548312                       # Per bank write bursts
system.mem_ctrls.perBankWrBursts::9            551744                       # Per bank write bursts
system.mem_ctrls.perBankWrBursts::10           544688                       # Per bank write bursts
system.mem_ctrls.perBankWrBursts::11           526985                       # Per bank write bursts
system.mem_ctrls.perBankWrBursts::12           534622                       # Per bank write bursts
system.mem_ctrls.perBankWrBursts::13           525625                       # Per bank write bursts
system.mem_ctrls.perBankWrBursts::14           530589                       # Per bank write bursts
system.mem_ctrls.perBankWrBursts::15           552723                       # Per bank write bursts
system.mem_ctrls.numRdRetry                         0                       # Number of times read queue was full causing retry
system.mem_ctrls.numWrRetry                      1170                       # Number of times write queue was full causing retry
system.mem_ctrls.totGap                  517150240507                       # Total gap between requests
system.mem_ctrls.readPktSize::0                     0                       # Read request sizes (log2)
system.mem_ctrls.readPktSize::1                     0                       # Read request sizes (log2)
system.mem_ctrls.readPktSize::2                     0                       # Read request sizes (log2)
system.mem_ctrls.readPktSize::3                     0                       # Read request sizes (log2)
system.mem_ctrls.readPktSize::4                     0                       # Read request sizes (log2)
system.mem_ctrls.readPktSize::5                     0                       # Read request sizes (log2)
system.mem_ctrls.readPktSize::6              13862020                       # Read request sizes (log2)
system.mem_ctrls.writePktSize::0                    0                       # Write request sizes (log2)
system.mem_ctrls.writePktSize::1                    0                       # Write request sizes (log2)
system.mem_ctrls.writePktSize::2                    0                       # Write request sizes (log2)
system.mem_ctrls.writePktSize::3                    0                       # Write request sizes (log2)
system.mem_ctrls.writePktSize::4                    0                       # Write request sizes (log2)
system.mem_ctrls.writePktSize::5                    0                       # Write request sizes (log2)
system.mem_ctrls.writePktSize::6              8689063                       # Write request sizes (log2)
system.mem_ctrls.rdQLenPdf::0                 2942067                       # What read queue length does an incoming req see
system.mem_ctrls.rdQLenPdf::1                 3430701                       # What read queue length does an incoming req see
system.mem_ctrls.rdQLenPdf::2                 1735907                       # What read queue length does an incoming req see
system.mem_ctrls.rdQLenPdf::3                 1262572                       # What read queue length does an incoming req see
system.mem_ctrls.rdQLenPdf::4                 1024325                       # What read queue length does an incoming req see
system.mem_ctrls.rdQLenPdf::5                  814922                       # What read queue length does an incoming req see
system.mem_ctrls.rdQLenPdf::6                  669494                       # What read queue length does an incoming req see
system.mem_ctrls.rdQLenPdf::7                  611721                       # What read queue length does an incoming req see
system.mem_ctrls.rdQLenPdf::8                  534022                       # What read queue length does an incoming req see
system.mem_ctrls.rdQLenPdf::9                  405073                       # What read queue length does an incoming req see
system.mem_ctrls.rdQLenPdf::10                 244151                       # What read queue length does an incoming req see
system.mem_ctrls.rdQLenPdf::11                 107770                       # What read queue length does an incoming req see
system.mem_ctrls.rdQLenPdf::12                  43087                       # What read queue length does an incoming req see
system.mem_ctrls.rdQLenPdf::13                  23146                       # What read queue length does an incoming req see
system.mem_ctrls.rdQLenPdf::14                   5300                       # What read queue length does an incoming req see
system.mem_ctrls.rdQLenPdf::15                   1470                       # What read queue length does an incoming req see
system.mem_ctrls.rdQLenPdf::16                      0                       # What read queue length does an incoming req see
system.mem_ctrls.rdQLenPdf::17                      0                       # What read queue length does an incoming req see
system.mem_ctrls.rdQLenPdf::18                      0                       # What read queue length does an incoming req see
system.mem_ctrls.rdQLenPdf::19                      0                       # What read queue length does an incoming req see
system.mem_ctrls.rdQLenPdf::20                      0                       # What read queue length does an incoming req see
system.mem_ctrls.rdQLenPdf::21                      0                       # What read queue length does an incoming req see
system.mem_ctrls.rdQLenPdf::22                      0                       # What read queue length does an incoming req see
system.mem_ctrls.rdQLenPdf::23                      0                       # What read queue length does an incoming req see
system.mem_ctrls.rdQLenPdf::24                      0                       # What read queue length does an incoming req see
system.mem_ctrls.rdQLenPdf::25                      0                       # What read queue length does an incoming req see
system.mem_ctrls.rdQLenPdf::26                      0                       # What read queue length does an incoming req see
system.mem_ctrls.rdQLenPdf::27                      0                       # What read queue length does an incoming req see
system.mem_ctrls.rdQLenPdf::28                      0                       # What read queue length does an incoming req see
system.mem_ctrls.rdQLenPdf::29                      0                       # What read queue length does an incoming req see
system.mem_ctrls.rdQLenPdf::30                      0                       # What read queue length does an incoming req see
system.mem_ctrls.rdQLenPdf::31                      0                       # What read queue length does an incoming req see
system.mem_ctrls.wrQLenPdf::0                       1                       # What write queue length does an incoming req see
system.mem_ctrls.wrQLenPdf::1                       1                       # What write queue length does an incoming req see
system.mem_ctrls.wrQLenPdf::2                       1                       # What write queue length does an incoming req see
system.mem_ctrls.wrQLenPdf::3                       1                       # What write queue length does an incoming req see
system.mem_ctrls.wrQLenPdf::4                       1                       # What write queue length does an incoming req see
system.mem_ctrls.wrQLenPdf::5                       1                       # What write queue length does an incoming req see
system.mem_ctrls.wrQLenPdf::6                       1                       # What write queue length does an incoming req see
system.mem_ctrls.wrQLenPdf::7                       1                       # What write queue length does an incoming req see
system.mem_ctrls.wrQLenPdf::8                       1                       # What write queue length does an incoming req see
system.mem_ctrls.wrQLenPdf::9                       1                       # What write queue length does an incoming req see
system.mem_ctrls.wrQLenPdf::10                      1                       # What write queue length does an incoming req see
system.mem_ctrls.wrQLenPdf::11                      1                       # What write queue length does an incoming req see
system.mem_ctrls.wrQLenPdf::12                      1                       # What write queue length does an incoming req see
system.mem_ctrls.wrQLenPdf::13                      1                       # What write queue length does an incoming req see
system.mem_ctrls.wrQLenPdf::14                      1                       # What write queue length does an incoming req see
system.mem_ctrls.wrQLenPdf::15                  11371                       # What write queue length does an incoming req see
system.mem_ctrls.wrQLenPdf::16                  14330                       # What write queue length does an incoming req see
system.mem_ctrls.wrQLenPdf::17                  76884                       # What write queue length does an incoming req see
system.mem_ctrls.wrQLenPdf::18                 134086                       # What write queue length does an incoming req see
system.mem_ctrls.wrQLenPdf::19                 183795                       # What write queue length does an incoming req see
system.mem_ctrls.wrQLenPdf::20                 241862                       # What write queue length does an incoming req see
system.mem_ctrls.wrQLenPdf::21                 323274                       # What write queue length does an incoming req see
system.mem_ctrls.wrQLenPdf::22                 391830                       # What write queue length does an incoming req see
system.mem_ctrls.wrQLenPdf::23                 452385                       # What write queue length does an incoming req see
system.mem_ctrls.wrQLenPdf::24                 506129                       # What write queue length does an incoming req see
system.mem_ctrls.wrQLenPdf::25                 557382                       # What write queue length does an incoming req see
system.mem_ctrls.wrQLenPdf::26                 609383                       # What write queue length does an incoming req see
system.mem_ctrls.wrQLenPdf::27                 660016                       # What write queue length does an incoming req see
system.mem_ctrls.wrQLenPdf::28                 720195                       # What write queue length does an incoming req see
system.mem_ctrls.wrQLenPdf::29                 801634                       # What write queue length does an incoming req see
system.mem_ctrls.wrQLenPdf::30                 826674                       # What write queue length does an incoming req see
system.mem_ctrls.wrQLenPdf::31                 814217                       # What write queue length does an incoming req see
system.mem_ctrls.wrQLenPdf::32                 724778                       # What write queue length does an incoming req see
system.mem_ctrls.wrQLenPdf::33                 153961                       # What write queue length does an incoming req see
system.mem_ctrls.wrQLenPdf::34                  98005                       # What write queue length does an incoming req see
system.mem_ctrls.wrQLenPdf::35                  66100                       # What write queue length does an incoming req see
system.mem_ctrls.wrQLenPdf::36                  47270                       # What write queue length does an incoming req see
system.mem_ctrls.wrQLenPdf::37                  35478                       # What write queue length does an incoming req see
system.mem_ctrls.wrQLenPdf::38                  26919                       # What write queue length does an incoming req see
system.mem_ctrls.wrQLenPdf::39                  21358                       # What write queue length does an incoming req see
system.mem_ctrls.wrQLenPdf::40                  17486                       # What write queue length does an incoming req see
system.mem_ctrls.wrQLenPdf::41                  14666                       # What write queue length does an incoming req see
system.mem_ctrls.wrQLenPdf::42                  13114                       # What write queue length does an incoming req see
system.mem_ctrls.wrQLenPdf::43                  11695                       # What write queue length does an incoming req see
system.mem_ctrls.wrQLenPdf::44                  10570                       # What write queue length does an incoming req see
system.mem_ctrls.wrQLenPdf::45                   9835                       # What write queue length does an incoming req see
system.mem_ctrls.wrQLenPdf::46                   9469                       # What write queue length does an incoming req see
system.mem_ctrls.wrQLenPdf::47                   8761                       # What write queue length does an incoming req see
system.mem_ctrls.wrQLenPdf::48                   8412                       # What write queue length does an incoming req see
system.mem_ctrls.wrQLenPdf::49                   8272                       # What write queue length does an incoming req see
system.mem_ctrls.wrQLenPdf::50                   7785                       # What write queue length does an incoming req see
system.mem_ctrls.wrQLenPdf::51                   7959                       # What write queue length does an incoming req see
system.mem_ctrls.wrQLenPdf::52                   8029                       # What write queue length does an incoming req see
system.mem_ctrls.wrQLenPdf::53                   7881                       # What write queue length does an incoming req see
system.mem_ctrls.wrQLenPdf::54                   8162                       # What write queue length does an incoming req see
system.mem_ctrls.wrQLenPdf::55                   8492                       # What write queue length does an incoming req see
system.mem_ctrls.wrQLenPdf::56                   5800                       # What write queue length does an incoming req see
system.mem_ctrls.wrQLenPdf::57                   4886                       # What write queue length does an incoming req see
system.mem_ctrls.wrQLenPdf::58                   4011                       # What write queue length does an incoming req see
system.mem_ctrls.wrQLenPdf::59                   3552                       # What write queue length does an incoming req see
system.mem_ctrls.wrQLenPdf::60                   2680                       # What write queue length does an incoming req see
system.mem_ctrls.wrQLenPdf::61                   2314                       # What write queue length does an incoming req see
system.mem_ctrls.wrQLenPdf::62                   2174                       # What write queue length does an incoming req see
system.mem_ctrls.wrQLenPdf::63                   3726                       # What write queue length does an incoming req see
system.mem_ctrls.bytesPerActivate::samples     11194098                       # Bytes accessed per row activation
system.mem_ctrls.bytesPerActivate::mean    128.895329                       # Bytes accessed per row activation
system.mem_ctrls.bytesPerActivate::gmean    89.589472                       # Bytes accessed per row activation
system.mem_ctrls.bytesPerActivate::stdev   177.293845                       # Bytes accessed per row activation
system.mem_ctrls.bytesPerActivate::0-127      8354464     74.63%     74.63% # Bytes accessed per row activation
system.mem_ctrls.bytesPerActivate::128-255      1641722     14.67%     89.30% # Bytes accessed per row activation
system.mem_ctrls.bytesPerActivate::256-383       411677      3.68%     92.98% # Bytes accessed per row activation
system.mem_ctrls.bytesPerActivate::384-511       179351      1.60%     94.58% # Bytes accessed per row activation
system.mem_ctrls.bytesPerActivate::512-639       195557      1.75%     96.33% # Bytes accessed per row activation
system.mem_ctrls.bytesPerActivate::640-767        88960      0.79%     97.12% # Bytes accessed per row activation
system.mem_ctrls.bytesPerActivate::768-895        54808      0.49%     97.61% # Bytes accessed per row activation
system.mem_ctrls.bytesPerActivate::896-1023        62848      0.56%     98.17% # Bytes accessed per row activation
system.mem_ctrls.bytesPerActivate::1024-1151       204711      1.83%    100.00% # Bytes accessed per row activation
system.mem_ctrls.bytesPerActivate::total     11194098                       # Bytes accessed per row activation
system.mem_ctrls.rdPerTurnAround::samples       539375                       # Reads before turning the bus around for writes
system.mem_ctrls.rdPerTurnAround::mean      25.727093                       # Reads before turning the bus around for writes
system.mem_ctrls.rdPerTurnAround::stdev     42.429106                       # Reads before turning the bus around for writes
system.mem_ctrls.rdPerTurnAround::0-1023       539365    100.00%    100.00% # Reads before turning the bus around for writes
system.mem_ctrls.rdPerTurnAround::1024-2047            9      0.00%    100.00% # Reads before turning the bus around for writes
system.mem_ctrls.rdPerTurnAround::27648-28671            1      0.00%    100.00% # Reads before turning the bus around for writes
system.mem_ctrls.rdPerTurnAround::total        539375                       # Reads before turning the bus around for writes
system.mem_ctrls.wrPerTurnAround::samples       539375                       # Writes before turning the bus around for reads
system.mem_ctrls.wrPerTurnAround::mean      16.109453                       # Writes before turning the bus around for reads
system.mem_ctrls.wrPerTurnAround::gmean     16.094452                       # Writes before turning the bus around for reads
system.mem_ctrls.wrPerTurnAround::stdev      0.887190                       # Writes before turning the bus around for reads
system.mem_ctrls.wrPerTurnAround::16-19        534566     99.11%     99.11% # Writes before turning the bus around for reads
system.mem_ctrls.wrPerTurnAround::20-23          4017      0.74%     99.85% # Writes before turning the bus around for reads
system.mem_ctrls.wrPerTurnAround::24-27           455      0.08%     99.94% # Writes before turning the bus around for reads
system.mem_ctrls.wrPerTurnAround::28-31           143      0.03%     99.96% # Writes before turning the bus around for reads
system.mem_ctrls.wrPerTurnAround::32-35            62      0.01%     99.98% # Writes before turning the bus around for reads
system.mem_ctrls.wrPerTurnAround::36-39            39      0.01%     99.98% # Writes before turning the bus around for reads
system.mem_ctrls.wrPerTurnAround::40-43            28      0.01%     99.99% # Writes before turning the bus around for reads
system.mem_ctrls.wrPerTurnAround::44-47            14      0.00%     99.99% # Writes before turning the bus around for reads
system.mem_ctrls.wrPerTurnAround::48-51            10      0.00%     99.99% # Writes before turning the bus around for reads
system.mem_ctrls.wrPerTurnAround::52-55             5      0.00%     99.99% # Writes before turning the bus around for reads
system.mem_ctrls.wrPerTurnAround::56-59             6      0.00%     99.99% # Writes before turning the bus around for reads
system.mem_ctrls.wrPerTurnAround::60-63            10      0.00%    100.00% # Writes before turning the bus around for reads
system.mem_ctrls.wrPerTurnAround::64-67             5      0.00%    100.00% # Writes before turning the bus around for reads
system.mem_ctrls.wrPerTurnAround::68-71             4      0.00%    100.00% # Writes before turning the bus around for reads
system.mem_ctrls.wrPerTurnAround::72-75             2      0.00%    100.00% # Writes before turning the bus around for reads
system.mem_ctrls.wrPerTurnAround::76-79             3      0.00%    100.00% # Writes before turning the bus around for reads
system.mem_ctrls.wrPerTurnAround::84-87             2      0.00%    100.00% # Writes before turning the bus around for reads
system.mem_ctrls.wrPerTurnAround::88-91             1      0.00%    100.00% # Writes before turning the bus around for reads
system.mem_ctrls.wrPerTurnAround::92-95             1      0.00%    100.00% # Writes before turning the bus around for reads
system.mem_ctrls.wrPerTurnAround::112-115            1      0.00%    100.00% # Writes before turning the bus around for reads
system.mem_ctrls.wrPerTurnAround::144-147            1      0.00%    100.00% # Writes before turning the bus around for reads
system.mem_ctrls.wrPerTurnAround::total        539375                       # Writes before turning the bus around for reads
system.mem_ctrls.totQLat                 1136532192971                       # Total ticks spent queuing
system.mem_ctrls.totMemAccLat            1396327092971                       # Total ticks spent from burst creation until serviced by the DRAM
system.mem_ctrls.totBusLat                69278640000                       # Total ticks spent in databus transfers
system.mem_ctrls.avgQLat                     82026.16                       # Average queueing delay per DRAM burst
system.mem_ctrls.avgBusLat                    5000.00                       # Average bus latency per DRAM burst
system.mem_ctrls.avgMemAccLat               100776.16                       # Average memory access latency per DRAM burst
system.mem_ctrls.avgRdBW                      1714.72                       # Average DRAM read bandwidth in MiByte/s
system.mem_ctrls.avgWrBW                      1075.31                       # Average achieved write bandwidth in MiByte/s
system.mem_ctrls.avgRdBWSys                   1715.50                       # Average system read bandwidth in MiByte/s
system.mem_ctrls.avgWrBWSys                   1075.32                       # Average system write bandwidth in MiByte/s
system.mem_ctrls.peakBW                      12800.00                       # Theoretical peak bandwidth in MiByte/s
system.mem_ctrls.busUtil                        21.80                       # Data bus utilization in percentage
system.mem_ctrls.busUtilRead                    13.40                       # Data bus utilization in percentage for reads
system.mem_ctrls.busUtilWrite                    8.40                       # Data bus utilization in percentage for writes
system.mem_ctrls.avgRdQLen                       3.71                       # Average read queue length when enqueuing
system.mem_ctrls.avgWrQLen                      27.43                       # Average write queue length when enqueuing
system.mem_ctrls.readRowHits                  8292818                       # Number of row buffer hits during reads
system.mem_ctrls.writeRowHits                 3057859                       # Number of row buffer hits during writes
system.mem_ctrls.readRowHitRate                 59.85                       # Row buffer hit rate for reads
system.mem_ctrls.writeRowHitRate                35.19                       # Row buffer hit rate for writes
system.mem_ctrls.avgGap                      22932.39                       # Average gap between requests
system.mem_ctrls.pageHitRate                    50.35                       # Row buffer hit rate, read and write combined
system.mem_ctrls_0.actEnergy              42575425200                       # Energy for activate commands per rank (pJ)
system.mem_ctrls_0.preEnergy              23230638750                       # Energy for precharge commands per rank (pJ)
system.mem_ctrls_0.readEnergy             53512095000                       # Energy for read commands per rank (pJ)
system.mem_ctrls_0.writeEnergy            28341887040                       # Energy for write commands per rank (pJ)
system.mem_ctrls_0.refreshEnergy          33823817040                       # Energy for refresh commands per rank (pJ)
system.mem_ctrls_0.actBackEnergy         347109599700                       # Energy for active background per rank (pJ)
system.mem_ctrls_0.preBackEnergy           6231492750                       # Energy for precharge background per rank (pJ)
system.mem_ctrls_0.totalEnergy           534824955480                       # Total energy per rank (pJ)
system.mem_ctrls_0.averagePower           1032.767718                       # Core power per rank (mW)
system.mem_ctrls_0.memoryStateTime::IDLE   8105387317                       # Time in different power states
system.mem_ctrls_0.memoryStateTime::REF   17268940000                       # Time in different power states
system.mem_ctrls_0.memoryStateTime::PRE_PDN            0                       # Time in different power states
system.mem_ctrls_0.memoryStateTime::ACT  491780641933                       # Time in different power states
system.mem_ctrls_0.memoryStateTime::ACT_PDN            0                       # Time in different power states
system.mem_ctrls_1.actEnergy              42107037840                       # Energy for activate commands per rank (pJ)
system.mem_ctrls_1.preEnergy              22975070250                       # Energy for precharge commands per rank (pJ)
system.mem_ctrls_1.readEnergy             54725190000                       # Energy for read commands per rank (pJ)
system.mem_ctrls_1.writeEnergy            27963066240                       # Energy for write commands per rank (pJ)
system.mem_ctrls_1.refreshEnergy          33823817040                       # Energy for refresh commands per rank (pJ)
system.mem_ctrls_1.actBackEnergy         349022953755                       # Energy for active background per rank (pJ)
system.mem_ctrls_1.preBackEnergy           4553093250                       # Energy for precharge background per rank (pJ)
system.mem_ctrls_1.totalEnergy           535170228375                       # Total energy per rank (pJ)
system.mem_ctrls_1.averagePower           1033.434516                       # Core power per rank (mW)
system.mem_ctrls_1.memoryStateTime::IDLE   5378942001                       # Time in different power states
system.mem_ctrls_1.memoryStateTime::REF   17268940000                       # Time in different power states
system.mem_ctrls_1.memoryStateTime::PRE_PDN            0                       # Time in different power states
system.mem_ctrls_1.memoryStateTime::ACT  494507061249                       # Time in different power states
system.mem_ctrls_1.memoryStateTime::ACT_PDN            0                       # Time in different power states
system.realview.nvmem.pwrStateResidencyTicks::UNDEFINED 3753703640500                       # Cumulative time (in ticks) in various power states
system.realview.vram.pwrStateResidencyTicks::UNDEFINED 3753703640500                       # Cumulative time (in ticks) in various power states
system.pwrStateResidencyTicks::UNDEFINED 3753703640500                       # Cumulative time (in ticks) in various power states
system.bridge.pwrStateResidencyTicks::UNDEFINED 3753703640500                       # Cumulative time (in ticks) in various power states
system.cf0.dma_read_full_pages                      0                       # Number of full page size DMA reads (not PRD).
system.cf0.dma_read_bytes                           0                       # Number of bytes transfered via DMA reads (not PRD).
system.cf0.dma_read_txs                             0                       # Number of DMA read transactions (not PRD).
system.cf0.dma_write_full_pages                  2334                       # Number of full page size DMA writes.
system.cf0.dma_write_bytes                    9636864                       # Number of bytes transfered via DMA writes.
system.cf0.dma_write_txs                         2404                       # Number of DMA write transactions.
system.cpu_voltage_domain.voltage                   1                       # Voltage in Volts
system.cpu_clk_domain.clock                       500                       # Clock period in ticks
system.cpu0.dstage2_mmu.stage2_tlb.walker.pwrStateResidencyTicks::UNDEFINED 3753703640500                       # Cumulative time (in ticks) in various power states
system.cpu0.dstage2_mmu.stage2_tlb.walker.walks            0                       # Table walker walks requested
system.cpu0.dstage2_mmu.stage2_tlb.walker.walkRequestOrigin_Requested::Data            0                       # Table walker requests started/completed, data/inst
system.cpu0.dstage2_mmu.stage2_tlb.walker.walkRequestOrigin_Requested::Inst            0                       # Table walker requests started/completed, data/inst
system.cpu0.dstage2_mmu.stage2_tlb.walker.walkRequestOrigin_Requested::total            0                       # Table walker requests started/completed, data/inst
system.cpu0.dstage2_mmu.stage2_tlb.walker.walkRequestOrigin_Completed::Data            0                       # Table walker requests started/completed, data/inst
system.cpu0.dstage2_mmu.stage2_tlb.walker.walkRequestOrigin_Completed::Inst            0                       # Table walker requests started/completed, data/inst
system.cpu0.dstage2_mmu.stage2_tlb.walker.walkRequestOrigin_Completed::total            0                       # Table walker requests started/completed, data/inst
system.cpu0.dstage2_mmu.stage2_tlb.walker.walkRequestOrigin::total            0                       # Table walker requests started/completed, data/inst
system.cpu0.dstage2_mmu.stage2_tlb.inst_hits            0                       # ITB inst hits
system.cpu0.dstage2_mmu.stage2_tlb.inst_misses            0                       # ITB inst misses
system.cpu0.dstage2_mmu.stage2_tlb.read_hits            0                       # DTB read hits
system.cpu0.dstage2_mmu.stage2_tlb.read_misses            0                       # DTB read misses
system.cpu0.dstage2_mmu.stage2_tlb.write_hits            0                       # DTB write hits
system.cpu0.dstage2_mmu.stage2_tlb.write_misses            0                       # DTB write misses
system.cpu0.dstage2_mmu.stage2_tlb.flush_tlb            0                       # Number of times complete TLB was flushed
system.cpu0.dstage2_mmu.stage2_tlb.flush_tlb_mva            0                       # Number of times TLB was flushed by MVA
system.cpu0.dstage2_mmu.stage2_tlb.flush_tlb_mva_asid            0                       # Number of times TLB was flushed by MVA & ASID
system.cpu0.dstage2_mmu.stage2_tlb.flush_tlb_asid            0                       # Number of times TLB was flushed by ASID
system.cpu0.dstage2_mmu.stage2_tlb.flush_entries            0                       # Number of entries that have been flushed from TLB
system.cpu0.dstage2_mmu.stage2_tlb.align_faults            0                       # Number of TLB faults due to alignment restrictions
system.cpu0.dstage2_mmu.stage2_tlb.prefetch_faults            0                       # Number of TLB faults due to prefetch
system.cpu0.dstage2_mmu.stage2_tlb.domain_faults            0                       # Number of TLB faults due to domain restrictions
system.cpu0.dstage2_mmu.stage2_tlb.perms_faults            0                       # Number of TLB faults due to permissions restrictions
system.cpu0.dstage2_mmu.stage2_tlb.read_accesses            0                       # DTB read accesses
system.cpu0.dstage2_mmu.stage2_tlb.write_accesses            0                       # DTB write accesses
system.cpu0.dstage2_mmu.stage2_tlb.inst_accesses            0                       # ITB inst accesses
system.cpu0.dstage2_mmu.stage2_tlb.hits             0                       # DTB hits
system.cpu0.dstage2_mmu.stage2_tlb.misses            0                       # DTB misses
system.cpu0.dstage2_mmu.stage2_tlb.accesses            0                       # DTB accesses
system.cpu0.dtb.walker.pwrStateResidencyTicks::UNDEFINED 3753703640500                       # Cumulative time (in ticks) in various power states
system.cpu0.dtb.walker.walks                        0                       # Table walker walks requested
system.cpu0.dtb.walker.walkRequestOrigin_Requested::Data            0                       # Table walker requests started/completed, data/inst
system.cpu0.dtb.walker.walkRequestOrigin_Requested::Inst            0                       # Table walker requests started/completed, data/inst
system.cpu0.dtb.walker.walkRequestOrigin_Requested::total            0                       # Table walker requests started/completed, data/inst
system.cpu0.dtb.walker.walkRequestOrigin_Completed::Data            0                       # Table walker requests started/completed, data/inst
system.cpu0.dtb.walker.walkRequestOrigin_Completed::Inst            0                       # Table walker requests started/completed, data/inst
system.cpu0.dtb.walker.walkRequestOrigin_Completed::total            0                       # Table walker requests started/completed, data/inst
system.cpu0.dtb.walker.walkRequestOrigin::total            0                       # Table walker requests started/completed, data/inst
system.cpu0.dtb.inst_hits                           0                       # ITB inst hits
system.cpu0.dtb.inst_misses                         0                       # ITB inst misses
system.cpu0.dtb.read_hits                           0                       # DTB read hits
system.cpu0.dtb.read_misses                         0                       # DTB read misses
system.cpu0.dtb.write_hits                          0                       # DTB write hits
system.cpu0.dtb.write_misses                        0                       # DTB write misses
system.cpu0.dtb.flush_tlb                           0                       # Number of times complete TLB was flushed
system.cpu0.dtb.flush_tlb_mva                       0                       # Number of times TLB was flushed by MVA
system.cpu0.dtb.flush_tlb_mva_asid                  0                       # Number of times TLB was flushed by MVA & ASID
system.cpu0.dtb.flush_tlb_asid                      0                       # Number of times TLB was flushed by ASID
system.cpu0.dtb.flush_entries                       0                       # Number of entries that have been flushed from TLB
system.cpu0.dtb.align_faults                        0                       # Number of TLB faults due to alignment restrictions
system.cpu0.dtb.prefetch_faults                     0                       # Number of TLB faults due to prefetch
system.cpu0.dtb.domain_faults                       0                       # Number of TLB faults due to domain restrictions
system.cpu0.dtb.perms_faults                        0                       # Number of TLB faults due to permissions restrictions
system.cpu0.dtb.read_accesses                       0                       # DTB read accesses
system.cpu0.dtb.write_accesses                      0                       # DTB write accesses
system.cpu0.dtb.inst_accesses                       0                       # ITB inst accesses
system.cpu0.dtb.hits                                0                       # DTB hits
system.cpu0.dtb.misses                              0                       # DTB misses
system.cpu0.dtb.accesses                            0                       # DTB accesses
system.cpu0.istage2_mmu.stage2_tlb.walker.pwrStateResidencyTicks::UNDEFINED 3753703640500                       # Cumulative time (in ticks) in various power states
system.cpu0.istage2_mmu.stage2_tlb.walker.walks            0                       # Table walker walks requested
system.cpu0.istage2_mmu.stage2_tlb.walker.walkRequestOrigin_Requested::Data            0                       # Table walker requests started/completed, data/inst
system.cpu0.istage2_mmu.stage2_tlb.walker.walkRequestOrigin_Requested::Inst            0                       # Table walker requests started/completed, data/inst
system.cpu0.istage2_mmu.stage2_tlb.walker.walkRequestOrigin_Requested::total            0                       # Table walker requests started/completed, data/inst
system.cpu0.istage2_mmu.stage2_tlb.walker.walkRequestOrigin_Completed::Data            0                       # Table walker requests started/completed, data/inst
system.cpu0.istage2_mmu.stage2_tlb.walker.walkRequestOrigin_Completed::Inst            0                       # Table walker requests started/completed, data/inst
system.cpu0.istage2_mmu.stage2_tlb.walker.walkRequestOrigin_Completed::total            0                       # Table walker requests started/completed, data/inst
system.cpu0.istage2_mmu.stage2_tlb.walker.walkRequestOrigin::total            0                       # Table walker requests started/completed, data/inst
system.cpu0.istage2_mmu.stage2_tlb.inst_hits            0                       # ITB inst hits
system.cpu0.istage2_mmu.stage2_tlb.inst_misses            0                       # ITB inst misses
system.cpu0.istage2_mmu.stage2_tlb.read_hits            0                       # DTB read hits
system.cpu0.istage2_mmu.stage2_tlb.read_misses            0                       # DTB read misses
system.cpu0.istage2_mmu.stage2_tlb.write_hits            0                       # DTB write hits
system.cpu0.istage2_mmu.stage2_tlb.write_misses            0                       # DTB write misses
system.cpu0.istage2_mmu.stage2_tlb.flush_tlb            0                       # Number of times complete TLB was flushed
system.cpu0.istage2_mmu.stage2_tlb.flush_tlb_mva            0                       # Number of times TLB was flushed by MVA
system.cpu0.istage2_mmu.stage2_tlb.flush_tlb_mva_asid            0                       # Number of times TLB was flushed by MVA & ASID
system.cpu0.istage2_mmu.stage2_tlb.flush_tlb_asid            0                       # Number of times TLB was flushed by ASID
system.cpu0.istage2_mmu.stage2_tlb.flush_entries            0                       # Number of entries that have been flushed from TLB
system.cpu0.istage2_mmu.stage2_tlb.align_faults            0                       # Number of TLB faults due to alignment restrictions
system.cpu0.istage2_mmu.stage2_tlb.prefetch_faults            0                       # Number of TLB faults due to prefetch
system.cpu0.istage2_mmu.stage2_tlb.domain_faults            0                       # Number of TLB faults due to domain restrictions
system.cpu0.istage2_mmu.stage2_tlb.perms_faults            0                       # Number of TLB faults due to permissions restrictions
system.cpu0.istage2_mmu.stage2_tlb.read_accesses            0                       # DTB read accesses
system.cpu0.istage2_mmu.stage2_tlb.write_accesses            0                       # DTB write accesses
system.cpu0.istage2_mmu.stage2_tlb.inst_accesses            0                       # ITB inst accesses
system.cpu0.istage2_mmu.stage2_tlb.hits             0                       # DTB hits
system.cpu0.istage2_mmu.stage2_tlb.misses            0                       # DTB misses
system.cpu0.istage2_mmu.stage2_tlb.accesses            0                       # DTB accesses
system.cpu0.itb.walker.pwrStateResidencyTicks::UNDEFINED 3753703640500                       # Cumulative time (in ticks) in various power states
system.cpu0.itb.walker.walks                        0                       # Table walker walks requested
system.cpu0.itb.walker.walkRequestOrigin_Requested::Data            0                       # Table walker requests started/completed, data/inst
system.cpu0.itb.walker.walkRequestOrigin_Requested::Inst            0                       # Table walker requests started/completed, data/inst
system.cpu0.itb.walker.walkRequestOrigin_Requested::total            0                       # Table walker requests started/completed, data/inst
system.cpu0.itb.walker.walkRequestOrigin_Completed::Data            0                       # Table walker requests started/completed, data/inst
system.cpu0.itb.walker.walkRequestOrigin_Completed::Inst            0                       # Table walker requests started/completed, data/inst
system.cpu0.itb.walker.walkRequestOrigin_Completed::total            0                       # Table walker requests started/completed, data/inst
system.cpu0.itb.walker.walkRequestOrigin::total            0                       # Table walker requests started/completed, data/inst
system.cpu0.itb.inst_hits                           0                       # ITB inst hits
system.cpu0.itb.inst_misses                         0                       # ITB inst misses
system.cpu0.itb.read_hits                           0                       # DTB read hits
system.cpu0.itb.read_misses                         0                       # DTB read misses
system.cpu0.itb.write_hits                          0                       # DTB write hits
system.cpu0.itb.write_misses                        0                       # DTB write misses
system.cpu0.itb.flush_tlb                           0                       # Number of times complete TLB was flushed
system.cpu0.itb.flush_tlb_mva                       0                       # Number of times TLB was flushed by MVA
system.cpu0.itb.flush_tlb_mva_asid                  0                       # Number of times TLB was flushed by MVA & ASID
system.cpu0.itb.flush_tlb_asid                      0                       # Number of times TLB was flushed by ASID
system.cpu0.itb.flush_entries                       0                       # Number of entries that have been flushed from TLB
system.cpu0.itb.align_faults                        0                       # Number of TLB faults due to alignment restrictions
system.cpu0.itb.prefetch_faults                     0                       # Number of TLB faults due to prefetch
system.cpu0.itb.domain_faults                       0                       # Number of TLB faults due to domain restrictions
system.cpu0.itb.perms_faults                        0                       # Number of TLB faults due to permissions restrictions
system.cpu0.itb.read_accesses                       0                       # DTB read accesses
system.cpu0.itb.write_accesses                      0                       # DTB write accesses
system.cpu0.itb.inst_accesses                       0                       # ITB inst accesses
system.cpu0.itb.hits                                0                       # DTB hits
system.cpu0.itb.misses                              0                       # DTB misses
system.cpu0.itb.accesses                            0                       # DTB accesses
system.cpu0.pwrStateResidencyTicks::ON   517856445000                       # Cumulative time (in ticks) in various power states
system.cpu0.numCycles                               0                       # number of cpu cycles simulated
system.cpu0.numWorkItemsStarted                     0                       # number of work items this cpu started
system.cpu0.numWorkItemsCompleted                   0                       # number of work items this cpu completed
system.cpu0.kern.inst.arm                           0                       # number of arm instructions executed
system.cpu0.kern.inst.quiesce                     468                       # number of quiesce instructions executed
system.cpu0.committedInsts                          0                       # Number of instructions committed
system.cpu0.committedOps                            0                       # Number of ops (including micro ops) committed
system.cpu0.num_int_alu_accesses                    0                       # Number of integer alu accesses
system.cpu0.num_fp_alu_accesses                     0                       # Number of float alu accesses
system.cpu0.num_func_calls                          0                       # number of times a function call or return occured
system.cpu0.num_conditional_control_insts            0                       # number of instructions that are conditional controls
system.cpu0.num_int_insts                           0                       # number of integer instructions
system.cpu0.num_fp_insts                            0                       # number of float instructions
system.cpu0.num_int_register_reads                  0                       # number of times the integer registers were read
system.cpu0.num_int_register_writes                 0                       # number of times the integer registers were written
system.cpu0.num_fp_register_reads                   0                       # number of times the floating registers were read
system.cpu0.num_fp_register_writes                  0                       # number of times the floating registers were written
system.cpu0.num_mem_refs                            0                       # number of memory refs
system.cpu0.num_load_insts                          0                       # Number of load instructions
system.cpu0.num_store_insts                         0                       # Number of store instructions
system.cpu0.num_idle_cycles                         0                       # Number of idle cycles
system.cpu0.num_busy_cycles                         0                       # Number of busy cycles
system.cpu0.not_idle_fraction                       0                       # Percentage of non-idle cycles
system.cpu0.idle_fraction                           1                       # Percentage of idle cycles
system.cpu0.op_class::No_OpClass                    0                       # Class of executed instruction
system.cpu0.op_class::IntAlu                        0                       # Class of executed instruction
system.cpu0.op_class::IntMult                       0                       # Class of executed instruction
system.cpu0.op_class::IntDiv                        0                       # Class of executed instruction
system.cpu0.op_class::FloatAdd                      0                       # Class of executed instruction
system.cpu0.op_class::FloatCmp                      0                       # Class of executed instruction
system.cpu0.op_class::FloatCvt                      0                       # Class of executed instruction
system.cpu0.op_class::FloatMult                     0                       # Class of executed instruction
system.cpu0.op_class::FloatDiv                      0                       # Class of executed instruction
system.cpu0.op_class::FloatSqrt                     0                       # Class of executed instruction
system.cpu0.op_class::SimdAdd                       0                       # Class of executed instruction
system.cpu0.op_class::SimdAddAcc                    0                       # Class of executed instruction
system.cpu0.op_class::SimdAlu                       0                       # Class of executed instruction
system.cpu0.op_class::SimdCmp                       0                       # Class of executed instruction
system.cpu0.op_class::SimdCvt                       0                       # Class of executed instruction
system.cpu0.op_class::SimdMisc                      0                       # Class of executed instruction
system.cpu0.op_class::SimdMult                      0                       # Class of executed instruction
system.cpu0.op_class::SimdMultAcc                   0                       # Class of executed instruction
system.cpu0.op_class::SimdShift                     0                       # Class of executed instruction
system.cpu0.op_class::SimdShiftAcc                  0                       # Class of executed instruction
system.cpu0.op_class::SimdSqrt                      0                       # Class of executed instruction
system.cpu0.op_class::SimdFloatAdd                  0                       # Class of executed instruction
system.cpu0.op_class::SimdFloatAlu                  0                       # Class of executed instruction
system.cpu0.op_class::SimdFloatCmp                  0                       # Class of executed instruction
system.cpu0.op_class::SimdFloatCvt                  0                       # Class of executed instruction
system.cpu0.op_class::SimdFloatDiv                  0                       # Class of executed instruction
system.cpu0.op_class::SimdFloatMisc                 0                       # Class of executed instruction
system.cpu0.op_class::SimdFloatMult                 0                       # Class of executed instruction
system.cpu0.op_class::SimdFloatMultAcc              0                       # Class of executed instruction
system.cpu0.op_class::SimdFloatSqrt                 0                       # Class of executed instruction
system.cpu0.op_class::MemRead                       0                       # Class of executed instruction
system.cpu0.op_class::MemWrite                      0                       # Class of executed instruction
system.cpu0.op_class::IprAccess                     0                       # Class of executed instruction
system.cpu0.op_class::InstPrefetch                  0                       # Class of executed instruction
system.cpu0.op_class::total                         0                       # Class of executed instruction
system.cpu0.dcache.tags.pwrStateResidencyTicks::UNDEFINED 3753703640500                       # Cumulative time (in ticks) in various power states
system.cpu0.dcache.tags.replacements         11901380                       # number of replacements
system.cpu0.dcache.tags.tagsinuse         1017.485688                       # Cycle average of tags in use
system.cpu0.dcache.tags.total_refs          143173386                       # Total number of references to valid blocks.
system.cpu0.dcache.tags.sampled_refs         11902384                       # Sample count of references to valid blocks.
system.cpu0.dcache.tags.avg_refs            12.028967                       # Average number of references to valid blocks.
system.cpu0.dcache.tags.warmup_cycle     3237908301500                       # Cycle when the warmup percentage was hit.
system.cpu0.dcache.tags.occ_blocks::switch_cpus0.data  1017.485688                       # Average occupied blocks per requestor
system.cpu0.dcache.tags.occ_percent::switch_cpus0.data     0.993638                       # Average percentage of cache occupancy
system.cpu0.dcache.tags.occ_percent::total     0.993638                       # Average percentage of cache occupancy
system.cpu0.dcache.tags.occ_task_id_blocks::1024         1004                       # Occupied blocks per task id
system.cpu0.dcache.tags.age_task_id_blocks_1024::0           28                       # Occupied blocks per task id
system.cpu0.dcache.tags.age_task_id_blocks_1024::1          471                       # Occupied blocks per task id
system.cpu0.dcache.tags.age_task_id_blocks_1024::2          451                       # Occupied blocks per task id
system.cpu0.dcache.tags.age_task_id_blocks_1024::3           53                       # Occupied blocks per task id
system.cpu0.dcache.tags.age_task_id_blocks_1024::4            1                       # Occupied blocks per task id
system.cpu0.dcache.tags.occ_task_id_percent::1024     0.980469                       # Percentage of cache occupancy per task id
system.cpu0.dcache.tags.tag_accesses        353012967                       # Number of tag accesses
system.cpu0.dcache.tags.data_accesses       353012967                       # Number of data accesses
system.cpu0.dcache.pwrStateResidencyTicks::UNDEFINED 3753703640500                       # Cumulative time (in ticks) in various power states
system.cpu0.dcache.ReadReq_hits::switch_cpus0.data     96280065                       # number of ReadReq hits
system.cpu0.dcache.ReadReq_hits::total       96280065                       # number of ReadReq hits
system.cpu0.dcache.WriteReq_hits::switch_cpus0.data     46314427                       # number of WriteReq hits
system.cpu0.dcache.WriteReq_hits::total      46314427                       # number of WriteReq hits
system.cpu0.dcache.SoftPFReq_hits::switch_cpus0.data        44645                       # number of SoftPFReq hits
system.cpu0.dcache.SoftPFReq_hits::total        44645                       # number of SoftPFReq hits
system.cpu0.dcache.LoadLockedReq_hits::switch_cpus0.data       244397                       # number of LoadLockedReq hits
system.cpu0.dcache.LoadLockedReq_hits::total       244397                       # number of LoadLockedReq hits
system.cpu0.dcache.StoreCondReq_hits::switch_cpus0.data       241499                       # number of StoreCondReq hits
system.cpu0.dcache.StoreCondReq_hits::total       241499                       # number of StoreCondReq hits
system.cpu0.dcache.demand_hits::switch_cpus0.data    142594492                       # number of demand (read+write) hits
system.cpu0.dcache.demand_hits::total       142594492                       # number of demand (read+write) hits
system.cpu0.dcache.overall_hits::switch_cpus0.data    142639137                       # number of overall hits
system.cpu0.dcache.overall_hits::total      142639137                       # number of overall hits
system.cpu0.dcache.ReadReq_misses::switch_cpus0.data     26101028                       # number of ReadReq misses
system.cpu0.dcache.ReadReq_misses::total     26101028                       # number of ReadReq misses
system.cpu0.dcache.WriteReq_misses::switch_cpus0.data      1257459                       # number of WriteReq misses
system.cpu0.dcache.WriteReq_misses::total      1257459                       # number of WriteReq misses
system.cpu0.dcache.SoftPFReq_misses::switch_cpus0.data        54931                       # number of SoftPFReq misses
system.cpu0.dcache.SoftPFReq_misses::total        54931                       # number of SoftPFReq misses
system.cpu0.dcache.LoadLockedReq_misses::switch_cpus0.data         5204                       # number of LoadLockedReq misses
system.cpu0.dcache.LoadLockedReq_misses::total         5204                       # number of LoadLockedReq misses
system.cpu0.dcache.StoreCondReq_misses::switch_cpus0.data         5239                       # number of StoreCondReq misses
system.cpu0.dcache.StoreCondReq_misses::total         5239                       # number of StoreCondReq misses
system.cpu0.dcache.demand_misses::switch_cpus0.data     27358487                       # number of demand (read+write) misses
system.cpu0.dcache.demand_misses::total      27358487                       # number of demand (read+write) misses
system.cpu0.dcache.overall_misses::switch_cpus0.data     27413418                       # number of overall misses
system.cpu0.dcache.overall_misses::total     27413418                       # number of overall misses
system.cpu0.dcache.ReadReq_miss_latency::switch_cpus0.data 1357958400500                       # number of ReadReq miss cycles
system.cpu0.dcache.ReadReq_miss_latency::total 1357958400500                       # number of ReadReq miss cycles
system.cpu0.dcache.WriteReq_miss_latency::switch_cpus0.data  30438940661                       # number of WriteReq miss cycles
system.cpu0.dcache.WriteReq_miss_latency::total  30438940661                       # number of WriteReq miss cycles
system.cpu0.dcache.LoadLockedReq_miss_latency::switch_cpus0.data    175900500                       # number of LoadLockedReq miss cycles
system.cpu0.dcache.LoadLockedReq_miss_latency::total    175900500                       # number of LoadLockedReq miss cycles
system.cpu0.dcache.StoreCondReq_miss_latency::switch_cpus0.data     32833500                       # number of StoreCondReq miss cycles
system.cpu0.dcache.StoreCondReq_miss_latency::total     32833500                       # number of StoreCondReq miss cycles
system.cpu0.dcache.StoreCondFailReq_miss_latency::switch_cpus0.data        51000                       # number of StoreCondFailReq miss cycles
system.cpu0.dcache.StoreCondFailReq_miss_latency::total        51000                       # number of StoreCondFailReq miss cycles
system.cpu0.dcache.demand_miss_latency::switch_cpus0.data 1388397341161                       # number of demand (read+write) miss cycles
system.cpu0.dcache.demand_miss_latency::total 1388397341161                       # number of demand (read+write) miss cycles
system.cpu0.dcache.overall_miss_latency::switch_cpus0.data 1388397341161                       # number of overall miss cycles
system.cpu0.dcache.overall_miss_latency::total 1388397341161                       # number of overall miss cycles
system.cpu0.dcache.ReadReq_accesses::switch_cpus0.data    122381093                       # number of ReadReq accesses(hits+misses)
system.cpu0.dcache.ReadReq_accesses::total    122381093                       # number of ReadReq accesses(hits+misses)
system.cpu0.dcache.WriteReq_accesses::switch_cpus0.data     47571886                       # number of WriteReq accesses(hits+misses)
system.cpu0.dcache.WriteReq_accesses::total     47571886                       # number of WriteReq accesses(hits+misses)
system.cpu0.dcache.SoftPFReq_accesses::switch_cpus0.data        99576                       # number of SoftPFReq accesses(hits+misses)
system.cpu0.dcache.SoftPFReq_accesses::total        99576                       # number of SoftPFReq accesses(hits+misses)
system.cpu0.dcache.LoadLockedReq_accesses::switch_cpus0.data       249601                       # number of LoadLockedReq accesses(hits+misses)
system.cpu0.dcache.LoadLockedReq_accesses::total       249601                       # number of LoadLockedReq accesses(hits+misses)
system.cpu0.dcache.StoreCondReq_accesses::switch_cpus0.data       246738                       # number of StoreCondReq accesses(hits+misses)
system.cpu0.dcache.StoreCondReq_accesses::total       246738                       # number of StoreCondReq accesses(hits+misses)
system.cpu0.dcache.demand_accesses::switch_cpus0.data    169952979                       # number of demand (read+write) accesses
system.cpu0.dcache.demand_accesses::total    169952979                       # number of demand (read+write) accesses
system.cpu0.dcache.overall_accesses::switch_cpus0.data    170052555                       # number of overall (read+write) accesses
system.cpu0.dcache.overall_accesses::total    170052555                       # number of overall (read+write) accesses
system.cpu0.dcache.ReadReq_miss_rate::switch_cpus0.data     0.213277                       # miss rate for ReadReq accesses
system.cpu0.dcache.ReadReq_miss_rate::total     0.213277                       # miss rate for ReadReq accesses
system.cpu0.dcache.WriteReq_miss_rate::switch_cpus0.data     0.026433                       # miss rate for WriteReq accesses
system.cpu0.dcache.WriteReq_miss_rate::total     0.026433                       # miss rate for WriteReq accesses
system.cpu0.dcache.SoftPFReq_miss_rate::switch_cpus0.data     0.551649                       # miss rate for SoftPFReq accesses
system.cpu0.dcache.SoftPFReq_miss_rate::total     0.551649                       # miss rate for SoftPFReq accesses
system.cpu0.dcache.LoadLockedReq_miss_rate::switch_cpus0.data     0.020849                       # miss rate for LoadLockedReq accesses
system.cpu0.dcache.LoadLockedReq_miss_rate::total     0.020849                       # miss rate for LoadLockedReq accesses
system.cpu0.dcache.StoreCondReq_miss_rate::switch_cpus0.data     0.021233                       # miss rate for StoreCondReq accesses
system.cpu0.dcache.StoreCondReq_miss_rate::total     0.021233                       # miss rate for StoreCondReq accesses
system.cpu0.dcache.demand_miss_rate::switch_cpus0.data     0.160977                       # miss rate for demand accesses
system.cpu0.dcache.demand_miss_rate::total     0.160977                       # miss rate for demand accesses
system.cpu0.dcache.overall_miss_rate::switch_cpus0.data     0.161206                       # miss rate for overall accesses
system.cpu0.dcache.overall_miss_rate::total     0.161206                       # miss rate for overall accesses
system.cpu0.dcache.ReadReq_avg_miss_latency::switch_cpus0.data 52027.008304                       # average ReadReq miss latency
system.cpu0.dcache.ReadReq_avg_miss_latency::total 52027.008304                       # average ReadReq miss latency
system.cpu0.dcache.WriteReq_avg_miss_latency::switch_cpus0.data 24206.706271                       # average WriteReq miss latency
system.cpu0.dcache.WriteReq_avg_miss_latency::total 24206.706271                       # average WriteReq miss latency
system.cpu0.dcache.LoadLockedReq_avg_miss_latency::switch_cpus0.data 33801.018447                       # average LoadLockedReq miss latency
system.cpu0.dcache.LoadLockedReq_avg_miss_latency::total 33801.018447                       # average LoadLockedReq miss latency
system.cpu0.dcache.StoreCondReq_avg_miss_latency::switch_cpus0.data  6267.131132                       # average StoreCondReq miss latency
system.cpu0.dcache.StoreCondReq_avg_miss_latency::total  6267.131132                       # average StoreCondReq miss latency
system.cpu0.dcache.StoreCondFailReq_avg_miss_latency::switch_cpus0.data          inf                       # average StoreCondFailReq miss latency
system.cpu0.dcache.StoreCondFailReq_avg_miss_latency::total          inf                       # average StoreCondFailReq miss latency
system.cpu0.dcache.demand_avg_miss_latency::switch_cpus0.data 50748.323223                       # average overall miss latency
system.cpu0.dcache.demand_avg_miss_latency::total 50748.323223                       # average overall miss latency
system.cpu0.dcache.overall_avg_miss_latency::switch_cpus0.data 50646.633746                       # average overall miss latency
system.cpu0.dcache.overall_avg_miss_latency::total 50646.633746                       # average overall miss latency
system.cpu0.dcache.blocked_cycles::no_mshrs       830213                       # number of cycles access was blocked
system.cpu0.dcache.blocked_cycles::no_targets     36451169                       # number of cycles access was blocked
system.cpu0.dcache.blocked::no_mshrs            16408                       # number of cycles access was blocked
system.cpu0.dcache.blocked::no_targets         355388                       # number of cycles access was blocked
system.cpu0.dcache.avg_blocked_cycles::no_mshrs    50.598062                       # average number of cycles each access was blocked
system.cpu0.dcache.avg_blocked_cycles::no_targets   102.567248                       # average number of cycles each access was blocked
system.cpu0.dcache.writebacks::writebacks     11901380                       # number of writebacks
system.cpu0.dcache.writebacks::total         11901380                       # number of writebacks
system.cpu0.dcache.ReadReq_mshr_hits::switch_cpus0.data     14520078                       # number of ReadReq MSHR hits
[...]
system.switch_cpus3.commit.op_class_0::SimdFloatCmp            0      0.00%     64.70% # Class of committed instruction
system.switch_cpus3.commit.op_class_0::SimdFloatCvt            0      0.00%     64.70% # Class of committed instruction
system.switch_cpus3.commit.op_class_0::SimdFloatDiv            0      0.00%     64.70% # Class of committed instruction
system.switch_cpus3.commit.op_class_0::SimdFloatMisc         1183      0.00%     64.70% # Class of committed instruction
system.switch_cpus3.commit.op_class_0::SimdFloatMult            0      0.00%     64.70% # Class of committed instruction
system.switch_cpus3.commit.op_class_0::SimdFloatMultAcc            0      0.00%     64.70% # Class of committed instruction
system.switch_cpus3.commit.op_class_0::SimdFloatSqrt            0      0.00%     64.70% # Class of committed instruction
system.switch_cpus3.commit.op_class_0::MemRead    211782990     17.78%     82.49% # Class of committed instruction
system.switch_cpus3.commit.op_class_0::MemWrite    208576383     17.51%    100.00% # Class of committed instruction
system.switch_cpus3.commit.op_class_0::IprAccess            0      0.00%    100.00% # Class of committed instruction
system.switch_cpus3.commit.op_class_0::InstPrefetch            0      0.00%    100.00% # Class of committed instruction
system.switch_cpus3.commit.op_class_0::total   1190982889                       # Class of committed instruction
system.switch_cpus3.commit.bw_lim_events     27894098                       # number cycles where commit BW limit reached
system.switch_cpus3.rob.rob_reads          2167997023                       # The number of ROB reads
system.switch_cpus3.rob.rob_writes         2654142534                       # The number of ROB writes
system.switch_cpus3.timesIdled                 782976                       # Number of times that the entire CPU went into an idle state and unscheduled itself
system.switch_cpus3.idleCycles              114896689                       # Total number of cycles that the CPU has spent unscheduled due to idling
system.switch_cpus3.quiesceCycles            15633187                       # Total number of cycles that CPU has spent quiesced or waiting for an interrupt
system.switch_cpus3.committedInsts          956456894                       # Number of Instructions Simulated
system.switch_cpus3.committedOps           1190897814                       # Number of Ops (including micro ops) Simulated
system.switch_cpus3.cpi                      1.065043                       # CPI: Cycles Per Instruction
system.switch_cpus3.cpi_total                1.065043                       # CPI: Total CPI of All Threads
system.switch_cpus3.ipc                      0.938929                       # IPC: Instructions Per Cycle
system.switch_cpus3.ipc_total                0.938929                       # IPC: Total IPC of All Threads
system.switch_cpus3.int_regfile_reads      1405817051                       # number of integer regfile reads
system.switch_cpus3.int_regfile_writes      726724348                       # number of integer regfile writes
system.switch_cpus3.fp_regfile_reads             6378                       # number of floating regfile reads
system.switch_cpus3.fp_regfile_writes            3568                       # number of floating regfile writes
system.switch_cpus3.cc_regfile_reads       4398818864                       # number of cc regfile reads
system.switch_cpus3.cc_regfile_writes       691961519                       # number of cc regfile writes
system.switch_cpus3.misc_regfile_reads     2257853228                       # number of misc regfile reads
system.switch_cpus3.misc_regfile_writes       4180777                       # number of misc regfile writes
system.tol2bus.snoop_filter.tot_requests     64090688                       # Total number of requests made to the snoop filter.
system.tol2bus.snoop_filter.hit_single_requests     31765079                       # Number of requests hitting in the snoop filter with a single holder of the requested data.
system.tol2bus.snoop_filter.hit_multi_requests      2058373                       # Number of requests hitting in the snoop filter with multiple (>1) holders of the requested data.
system.tol2bus.snoop_filter.tot_snoops         127365                       # Total number of snoops made to the snoop filter.
system.tol2bus.snoop_filter.hit_single_snoops       124000                       # Number of snoops hitting in the snoop filter with a single holder of the requested data.
system.tol2bus.snoop_filter.hit_multi_snoops         3365                       # Number of snoops hitting in the snoop filter with multiple (>1) holders of the requested data.
system.tol2bus.pwrStateResidencyTicks::UNDEFINED 3753703640500                       # Cumulative time (in ticks) in various power states
system.tol2bus.trans_dist::ReadReq               4584                       # Transaction distribution
system.tol2bus.trans_dist::ReadResp          24404546                       # Transaction distribution
system.tol2bus.trans_dist::WriteReq              5494                       # Transaction distribution
system.tol2bus.trans_dist::WriteResp             5494                       # Transaction distribution
system.tol2bus.trans_dist::WritebackDirty     20904383                       # Transaction distribution
system.tol2bus.trans_dist::WritebackClean     19499179                       # Transaction distribution
system.tol2bus.trans_dist::CleanEvict         3736896                       # Transaction distribution
system.tol2bus.trans_dist::HardPFReq         10151120                       # Transaction distribution
system.tol2bus.trans_dist::HardPFResp               2                       # Transaction distribution
system.tol2bus.trans_dist::UpgradeReq          141801                       # Transaction distribution
system.tol2bus.trans_dist::SCUpgradeReq         22322                       # Transaction distribution
system.tol2bus.trans_dist::UpgradeResp         164123                       # Transaction distribution
system.tol2bus.trans_dist::SCUpgradeFailReq            2                       # Transaction distribution
system.tol2bus.trans_dist::UpgradeFailResp            2                       # Transaction distribution
system.tol2bus.trans_dist::ReadExReq          7658751                       # Transaction distribution
system.tol2bus.trans_dist::ReadExResp         7658751                       # Transaction distribution
system.tol2bus.trans_dist::ReadCleanReq      10882989                       # Transaction distribution
system.tol2bus.trans_dist::ReadSharedReq     13516997                       # Transaction distribution
system.tol2bus.trans_dist::InvalidateReq         6250                       # Transaction distribution
system.tol2bus.pkt_count_system.cpu0.icache.mem_side::system.l2.cpu_side      3032474                       # Packet count per connected master and slave (bytes)
system.tol2bus.pkt_count_system.cpu0.dcache.mem_side::system.l2.cpu_side     35749238                       # Packet count per connected master and slave (bytes)
system.tol2bus.pkt_count_system.cpu0.itb_walker_cache.mem_side::system.l2.cpu_side         3346                       # Packet count per connected master and slave (bytes)
system.tol2bus.pkt_count_system.cpu0.dtb_walker_cache.mem_side::system.l2.cpu_side      4467956                       # Packet count per connected master and slave (bytes)
system.tol2bus.pkt_count_system.cpu1.icache.mem_side::system.l2.cpu_side      4424581                       # Packet count per connected master and slave (bytes)
system.tol2bus.pkt_count_system.cpu1.dcache.mem_side::system.l2.cpu_side      1165759                       # Packet count per connected master and slave (bytes)
system.tol2bus.pkt_count_system.cpu1.itb_walker_cache.mem_side::system.l2.cpu_side        12328                       # Packet count per connected master and slave (bytes)
system.tol2bus.pkt_count_system.cpu1.dtb_walker_cache.mem_side::system.l2.cpu_side        36394                       # Packet count per connected master and slave (bytes)
system.tol2bus.pkt_count_system.cpu2.icache.mem_side::system.l2.cpu_side      5301046                       # Packet count per connected master and slave (bytes)
system.tol2bus.pkt_count_system.cpu2.dcache.mem_side::system.l2.cpu_side     23543593                       # Packet count per connected master and slave (bytes)
system.tol2bus.pkt_count_system.cpu2.itb_walker_cache.mem_side::system.l2.cpu_side         2539                       # Packet count per connected master and slave (bytes)
system.tol2bus.pkt_count_system.cpu2.dtb_walker_cache.mem_side::system.l2.cpu_side       166002                       # Packet count per connected master and slave (bytes)
system.tol2bus.pkt_count_system.cpu3.icache.mem_side::system.l2.cpu_side     14886443                       # Packet count per connected master and slave (bytes)
system.tol2bus.pkt_count_system.cpu3.dcache.mem_side::system.l2.cpu_side      3271515                       # Packet count per connected master and slave (bytes)
system.tol2bus.pkt_count_system.cpu3.itb_walker_cache.mem_side::system.l2.cpu_side         7109                       # Packet count per connected master and slave (bytes)
system.tol2bus.pkt_count_system.cpu3.dtb_walker_cache.mem_side::system.l2.cpu_side        25252                       # Packet count per connected master and slave (bytes)
system.tol2bus.pkt_count::total              96095575                       # Packet count per connected master and slave (bytes)
system.tol2bus.pkt_size_system.cpu0.icache.mem_side::system.l2.cpu_side    129383744                       # Cumulative packet size per connected master and slave (bytes)
system.tol2bus.pkt_size_system.cpu0.dcache.mem_side::system.l2.cpu_side   1523232009                       # Cumulative packet size per connected master and slave (bytes)
system.tol2bus.pkt_size_system.cpu0.itb_walker_cache.mem_side::system.l2.cpu_side        86912                       # Cumulative packet size per connected master and slave (bytes)
system.tol2bus.pkt_size_system.cpu0.dtb_walker_cache.mem_side::system.l2.cpu_side    190486400                       # Cumulative packet size per connected master and slave (bytes)
system.tol2bus.pkt_size_system.cpu1.icache.mem_side::system.l2.cpu_side    188781056                       # Cumulative packet size per connected master and slave (bytes)
system.tol2bus.pkt_size_system.cpu1.dcache.mem_side::system.l2.cpu_side     48181227                       # Cumulative packet size per connected master and slave (bytes)
system.tol2bus.pkt_size_system.cpu1.itb_walker_cache.mem_side::system.l2.cpu_side       420160                       # Cumulative packet size per connected master and slave (bytes)
system.tol2bus.pkt_size_system.cpu1.dtb_walker_cache.mem_side::system.l2.cpu_side      1362368                       # Cumulative packet size per connected master and slave (bytes)
system.tol2bus.pkt_size_system.cpu2.icache.mem_side::system.l2.cpu_side    226177216                       # Cumulative packet size per connected master and slave (bytes)
system.tol2bus.pkt_size_system.cpu2.dcache.mem_side::system.l2.cpu_side    993874676                       # Cumulative packet size per connected master and slave (bytes)
system.tol2bus.pkt_size_system.cpu2.itb_walker_cache.mem_side::system.l2.cpu_side        62528                       # Cumulative packet size per connected master and slave (bytes)
system.tol2bus.pkt_size_system.cpu2.dtb_walker_cache.mem_side::system.l2.cpu_side      1932160                       # Cumulative packet size per connected master and slave (bytes)
system.tol2bus.pkt_size_system.cpu3.icache.mem_side::system.l2.cpu_side    635154560                       # Cumulative packet size per connected master and slave (bytes)
system.tol2bus.pkt_size_system.cpu3.dcache.mem_side::system.l2.cpu_side    137975892                       # Cumulative packet size per connected master and slave (bytes)
system.tol2bus.pkt_size_system.cpu3.itb_walker_cache.mem_side::system.l2.cpu_side       173312                       # Cumulative packet size per connected master and slave (bytes)
system.tol2bus.pkt_size_system.cpu3.dtb_walker_cache.mem_side::system.l2.cpu_side       858368                       # Cumulative packet size per connected master and slave (bytes)
system.tol2bus.pkt_size::total             4078142588                       # Cumulative packet size per connected master and slave (bytes)
system.tol2bus.snoops                        22669184                       # Total snoops (count)
system.tol2bus.snoopTraffic                 559531840                       # Total snoop traffic (bytes)
system.tol2bus.snoop_fanout::samples         54667989                       # Request fanout histogram
system.tol2bus.snoop_fanout::mean            0.045412                       # Request fanout histogram
system.tol2bus.snoop_fanout::stdev           0.249650                       # Request fanout histogram
system.tol2bus.snoop_fanout::underflows             0      0.00%      0.00% # Request fanout histogram
system.tol2bus.snoop_fanout::0               52586636     96.19%     96.19% # Request fanout histogram
system.tol2bus.snoop_fanout::1                1776139      3.25%     99.44% # Request fanout histogram
system.tol2bus.snoop_fanout::2                 223073      0.41%     99.85% # Request fanout histogram
system.tol2bus.snoop_fanout::3                  73657      0.13%     99.98% # Request fanout histogram
system.tol2bus.snoop_fanout::4                   4766      0.01%     99.99% # Request fanout histogram
system.tol2bus.snoop_fanout::5                   2389      0.00%    100.00% # Request fanout histogram
system.tol2bus.snoop_fanout::6                    963      0.00%    100.00% # Request fanout histogram
system.tol2bus.snoop_fanout::7                    366      0.00%    100.00% # Request fanout histogram
system.tol2bus.snoop_fanout::8                      0      0.00%    100.00% # Request fanout histogram
system.tol2bus.snoop_fanout::9                      0      0.00%    100.00% # Request fanout histogram
system.tol2bus.snoop_fanout::10                     0      0.00%    100.00% # Request fanout histogram
system.tol2bus.snoop_fanout::11                     0      0.00%    100.00% # Request fanout histogram
system.tol2bus.snoop_fanout::12                     0      0.00%    100.00% # Request fanout histogram
system.tol2bus.snoop_fanout::13                     0      0.00%    100.00% # Request fanout histogram
system.tol2bus.snoop_fanout::14                     0      0.00%    100.00% # Request fanout histogram
system.tol2bus.snoop_fanout::15                     0      0.00%    100.00% # Request fanout histogram
system.tol2bus.snoop_fanout::16                     0      0.00%    100.00% # Request fanout histogram
system.tol2bus.snoop_fanout::overflows              0      0.00%    100.00% # Request fanout histogram
system.tol2bus.snoop_fanout::min_value              0                       # Request fanout histogram
system.tol2bus.snoop_fanout::max_value              7                       # Request fanout histogram
system.tol2bus.snoop_fanout::total           54667989                       # Request fanout histogram
system.tol2bus.reqLayer0.occupancy        63920057250                       # Layer occupancy (ticks)
system.tol2bus.reqLayer0.utilization             12.4                       # Layer utilization (%)
system.tol2bus.snoopLayer0.occupancy          1710058                       # Layer occupancy (ticks)
system.tol2bus.snoopLayer0.utilization            0.0                       # Layer utilization (%)
system.tol2bus.respLayer0.occupancy        1518743054                       # Layer occupancy (ticks)
system.tol2bus.respLayer0.utilization             0.3                       # Layer utilization (%)
system.tol2bus.respLayer1.occupancy       17933085476                       # Layer occupancy (ticks)
system.tol2bus.respLayer1.utilization             3.5                       # Layer utilization (%)
system.tol2bus.respLayer2.occupancy           2985992                       # Layer occupancy (ticks)
system.tol2bus.respLayer2.utilization             0.0                       # Layer utilization (%)
system.tol2bus.respLayer3.occupancy        2239019267                       # Layer occupancy (ticks)
system.tol2bus.respLayer3.utilization             0.4                       # Layer utilization (%)
system.tol2bus.respLayer4.occupancy        2217450732                       # Layer occupancy (ticks)
system.tol2bus.respLayer4.utilization             0.4                       # Layer utilization (%)
system.tol2bus.respLayer5.occupancy         597165727                       # Layer occupancy (ticks)
system.tol2bus.respLayer5.utilization             0.1                       # Layer utilization (%)
system.tol2bus.respLayer6.occupancy           8688412                       # Layer occupancy (ticks)
system.tol2bus.respLayer6.utilization             0.0                       # Layer utilization (%)
system.tol2bus.respLayer7.occupancy          22747824                       # Layer occupancy (ticks)
system.tol2bus.respLayer7.utilization             0.0                       # Layer utilization (%)
system.tol2bus.respLayer8.occupancy        2656865779                       # Layer occupancy (ticks)
system.tol2bus.respLayer8.utilization             0.5                       # Layer utilization (%)
system.tol2bus.respLayer9.occupancy       11746811575                       # Layer occupancy (ticks)
system.tol2bus.respLayer9.utilization             2.3                       # Layer utilization (%)
system.tol2bus.respLayer10.occupancy          2351483                       # Layer occupancy (ticks)
system.tol2bus.respLayer10.utilization            0.0                       # Layer utilization (%)
system.tol2bus.respLayer11.occupancy        203834766                       # Layer occupancy (ticks)
system.tol2bus.respLayer11.utilization            0.0                       # Layer utilization (%)
system.tol2bus.respLayer12.occupancy       7456049344                       # Layer occupancy (ticks)
system.tol2bus.respLayer12.utilization            1.4                       # Layer utilization (%)
system.tol2bus.respLayer13.occupancy       1651824130                       # Layer occupancy (ticks)
system.tol2bus.respLayer13.utilization            0.3                       # Layer utilization (%)
system.tol2bus.respLayer14.occupancy          6616470                       # Layer occupancy (ticks)
system.tol2bus.respLayer14.utilization            0.0                       # Layer utilization (%)
system.tol2bus.respLayer15.occupancy         17810398                       # Layer occupancy (ticks)
system.tol2bus.respLayer15.utilization            0.0                       # Layer utilization (%)
system.switch_cpus0.kern.inst.arm                   0                       # number of arm instructions executed
system.switch_cpus0.kern.inst.quiesce               0                       # number of quiesce instructions executed
system.switch_cpus1.kern.inst.arm                   0                       # number of arm instructions executed
system.switch_cpus1.kern.inst.quiesce               0                       # number of quiesce instructions executed
system.switch_cpus2.kern.inst.arm                   0                       # number of arm instructions executed
system.switch_cpus2.kern.inst.quiesce               0                       # number of quiesce instructions executed
system.switch_cpus3.kern.inst.arm                   0                       # number of arm instructions executed
system.switch_cpus3.kern.inst.quiesce               0                       # number of quiesce instructions executed

---------- End Simulation Statistics   ----------
