
---------- Begin Simulation Statistics ----------
sim_seconds                                  0.517149                       # Number of seconds simulated
sim_ticks                                517148664500                       # Number of ticks simulated
final_tick                               3753682512500                       # Number of ticks from beginning of simulation (restored from checkpoints and never reset)
sim_freq                                 1000000000000                       # Frequency of simulated ticks
host_inst_rate                                 105438                       # Simulator instruction rate (inst/s)
host_op_rate                                   125924                       # Simulator op (including micro ops) rate (op/s)
host_tick_rate                               17847806                       # Simulator tick rate (ticks/s)
host_mem_usage                                2657388                       # Number of bytes of host memory used
host_seconds                                 28975.47                       # Real time elapsed on the host
sim_insts                                  3055110501                       # Number of instructions simulated
sim_ops                                    3648711716                       # Number of ops (including micro ops) simulated
system.voltage_domain.voltage                       1                       # Voltage in Volts
system.clk_domain.clock                          1000                       # Clock period in ticks
system.mem_ctrls.pwrStateResidencyTicks::UNDEFINED 3753682512500                       # Cumulative time (in ticks) in various power states
system.mem_ctrls.bytes_read::l2.prefetcher    467955136                       # Number of bytes read from this memory
system.mem_ctrls.bytes_read::switch_cpus0.dtb.walker      4913792                       # Number of bytes read from this memory
system.mem_ctrls.bytes_read::switch_cpus0.itb.walker        27008                       # Number of bytes read from this memory
system.mem_ctrls.bytes_read::switch_cpus0.inst     11114112                       # Number of bytes read from this memory
system.mem_ctrls.bytes_read::switch_cpus0.data    247997248                       # Number of bytes read from this memory
system.mem_ctrls.bytes_read::switch_cpus1.dtb.walker       319488                       # Number of bytes read from this memory
system.mem_ctrls.bytes_read::switch_cpus1.itb.walker       114368                       # Number of bytes read from this memory
system.mem_ctrls.bytes_read::switch_cpus1.inst     17037696                       # Number of bytes read from this memory
system.mem_ctrls.bytes_read::switch_cpus1.data      6762624                       # Number of bytes read from this memory
system.mem_ctrls.bytes_read::switch_cpus2.dtb.walker       446272                       # Number of bytes read from this memory
system.mem_ctrls.bytes_read::switch_cpus2.itb.walker        18816                       # Number of bytes read from this memory
system.mem_ctrls.bytes_read::switch_cpus2.inst     27139776                       # Number of bytes read from this memory
system.mem_ctrls.bytes_read::switch_cpus2.data     50407680                       # Number of bytes read from this memory
system.mem_ctrls.bytes_read::switch_cpus3.dtb.walker       190848                       # Number of bytes read from this memory
system.mem_ctrls.bytes_read::switch_cpus3.itb.walker        51968                       # Number of bytes read from this memory
system.mem_ctrls.bytes_read::switch_cpus3.inst     34810560                       # Number of bytes read from this memory
system.mem_ctrls.bytes_read::switch_cpus3.data      6420160                       # Number of bytes read from this memory
system.mem_ctrls.bytes_read::total          875727552                       # Number of bytes read from this memory
system.mem_ctrls.bytes_inst_read::switch_cpus0.inst     11114112                       # Number of instructions bytes read from this memory
system.mem_ctrls.bytes_inst_read::switch_cpus1.inst     17037696                       # Number of instructions bytes read from this memory
system.mem_ctrls.bytes_inst_read::switch_cpus2.inst     27139776                       # Number of instructions bytes read from this memory
system.mem_ctrls.bytes_inst_read::switch_cpus3.inst     34810560                       # Number of instructions bytes read from this memory
system.mem_ctrls.bytes_inst_read::total      90102144                       # Number of instructions bytes read from this memory
system.mem_ctrls.bytes_written::writebacks    557469504                       # Number of bytes written to this memory
system.mem_ctrls.bytes_written::total       557469504                       # Number of bytes written to this memory
system.mem_ctrls.num_reads::l2.prefetcher      7311799                       # Number of read requests responded to by this memory
system.mem_ctrls.num_reads::switch_cpus0.dtb.walker        76778                       # Number of read requests responded to by this memory
system.mem_ctrls.num_reads::switch_cpus0.itb.walker          422                       # Number of read requests responded to by this memory
system.mem_ctrls.num_reads::switch_cpus0.inst       173658                       # Number of read requests responded to by this memory
system.mem_ctrls.num_reads::switch_cpus0.data      3874957                       # Number of read requests responded to by this memory
system.mem_ctrls.num_reads::switch_cpus1.dtb.walker         4992                       # Number of read requests responded to by this memory
system.mem_ctrls.num_reads::switch_cpus1.itb.walker         1787                       # Number of read requests responded to by this memory
system.mem_ctrls.num_reads::switch_cpus1.inst       266214                       # Number of read requests responded to by this memory
system.mem_ctrls.num_reads::switch_cpus1.data       105666                       # Number of read requests responded to by this memory
system.mem_ctrls.num_reads::switch_cpus2.dtb.walker         6973                       # Number of read requests responded to by this memory
system.mem_ctrls.num_reads::switch_cpus2.itb.walker          294                       # Number of read requests responded to by this memory
system.mem_ctrls.num_reads::switch_cpus2.inst       424059                       # Number of read requests responded to by this memory
system.mem_ctrls.num_reads::switch_cpus2.data       787620                       # Number of read requests responded to by this memory
system.mem_ctrls.num_reads::switch_cpus3.dtb.walker         2982                       # Number of read requests responded to by this memory
system.mem_ctrls.num_reads::switch_cpus3.itb.walker          812                       # Number of read requests responded to by this memory
system.mem_ctrls.num_reads::switch_cpus3.inst       543915                       # Number of read requests responded to by this memory
system.mem_ctrls.num_reads::switch_cpus3.data       100315                       # Number of read requests responded to by this memory
system.mem_ctrls.num_reads::total            13683243                       # Number of read requests responded to by this memory
system.mem_ctrls.num_writes::writebacks       8710461                       # Number of write requests responded to by this memory
system.mem_ctrls.num_writes::total            8710461                       # Number of write requests responded to by this memory
system.mem_ctrls.bw_read::l2.prefetcher     904875461                       # Total read bandwidth from this memory (bytes/s)
system.mem_ctrls.bw_read::switch_cpus0.dtb.walker      9501701                       # Total read bandwidth from this memory (bytes/s)
system.mem_ctrls.bw_read::switch_cpus0.itb.walker        52225                       # Total read bandwidth from this memory (bytes/s)
system.mem_ctrls.bw_read::switch_cpus0.inst     21491135                       # Total read bandwidth from this memory (bytes/s)
system.mem_ctrls.bw_read::switch_cpus0.data    479547304                       # Total read bandwidth from this memory (bytes/s)
system.mem_ctrls.bw_read::switch_cpus1.dtb.walker       617788                       # Total read bandwidth from this memory (bytes/s)
system.mem_ctrls.bw_read::switch_cpus1.itb.walker       221151                       # Total read bandwidth from this memory (bytes/s)
system.mem_ctrls.bw_read::switch_cpus1.inst     32945451                       # Total read bandwidth from this memory (bytes/s)
system.mem_ctrls.bw_read::switch_cpus1.data     13076750                       # Total read bandwidth from this memory (bytes/s)
system.mem_ctrls.bw_read::switch_cpus2.dtb.walker       862947                       # Total read bandwidth from this memory (bytes/s)
system.mem_ctrls.bw_read::switch_cpus2.itb.walker        36384                       # Total read bandwidth from this memory (bytes/s)
system.mem_ctrls.bw_read::switch_cpus2.inst     52479641                       # Total read bandwidth from this memory (bytes/s)
system.mem_ctrls.bw_read::switch_cpus2.data     97472320                       # Total read bandwidth from this memory (bytes/s)
system.mem_ctrls.bw_read::switch_cpus3.dtb.walker       369039                       # Total read bandwidth from this memory (bytes/s)
system.mem_ctrls.bw_read::switch_cpus3.itb.walker       100489                       # Total read bandwidth from this memory (bytes/s)
system.mem_ctrls.bw_read::switch_cpus3.inst     67312482                       # Total read bandwidth from this memory (bytes/s)
system.mem_ctrls.bw_read::switch_cpus3.data     12414535                       # Total read bandwidth from this memory (bytes/s)
system.mem_ctrls.bw_read::total            1693376803                       # Total read bandwidth from this memory (bytes/s)
system.mem_ctrls.bw_inst_read::switch_cpus0.inst     21491135                       # Instruction read bandwidth from this memory (bytes/s)
system.mem_ctrls.bw_inst_read::switch_cpus1.inst     32945451                       # Instruction read bandwidth from this memory (bytes/s)
system.mem_ctrls.bw_inst_read::switch_cpus2.inst     52479641                       # Instruction read bandwidth from this memory (bytes/s)
system.mem_ctrls.bw_inst_read::switch_cpus3.inst     67312482                       # Instruction read bandwidth from this memory (bytes/s)
system.mem_ctrls.bw_inst_read::total        174228709                       # Instruction read bandwidth from this memory (bytes/s)
system.mem_ctrls.bw_write::writebacks      1077967599                       # Write bandwidth from this memory (bytes/s)
system.mem_ctrls.bw_write::total           1077967599                       # Write bandwidth from this memory (bytes/s)
system.mem_ctrls.bw_total::writebacks      1077967599                       # Total bandwidth to/from this memory (bytes/s)
system.mem_ctrls.bw_total::l2.prefetcher    904875461                       # Total bandwidth to/from this memory (bytes/s)
system.mem_ctrls.bw_total::switch_cpus0.dtb.walker      9501701                       # Total bandwidth to/from this memory (bytes/s)
system.mem_ctrls.bw_total::switch_cpus0.itb.walker        52225                       # Total bandwidth to/from this memory (bytes/s)
system.mem_ctrls.bw_total::switch_cpus0.inst     21491135                       # Total bandwidth to/from this memory (bytes/s)
system.mem_ctrls.bw_total::switch_cpus0.data    479547304                       # Total bandwidth to/from this memory (bytes/s)
system.mem_ctrls.bw_total::switch_cpus1.dtb.walker       617788                       # Total bandwidth to/from this memory (bytes/s)
system.mem_ctrls.bw_total::switch_cpus1.itb.walker       221151                       # Total bandwidth to/from this memory (bytes/s)
system.mem_ctrls.bw_total::switch_cpus1.inst     32945451                       # Total bandwidth to/from this memory (bytes/s)
system.mem_ctrls.bw_total::switch_cpus1.data     13076750                       # Total bandwidth to/from this memory (bytes/s)
system.mem_ctrls.bw_total::switch_cpus2.dtb.walker       862947                       # Total bandwidth to/from this memory (bytes/s)
system.mem_ctrls.bw_total::switch_cpus2.itb.walker        36384                       # Total bandwidth to/from this memory (bytes/s)
system.mem_ctrls.bw_total::switch_cpus2.inst     52479641                       # Total bandwidth to/from this memory (bytes/s)
system.mem_ctrls.bw_total::switch_cpus2.data     97472320                       # Total bandwidth to/from this memory (bytes/s)
system.mem_ctrls.bw_total::switch_cpus3.dtb.walker       369039                       # Total bandwidth to/from this memory (bytes/s)
system.mem_ctrls.bw_total::switch_cpus3.itb.walker       100489                       # Total bandwidth to/from this memory (bytes/s)
system.mem_ctrls.bw_total::switch_cpus3.inst     67312482                       # Total bandwidth to/from this memory (bytes/s)
system.mem_ctrls.bw_total::switch_cpus3.data     12414535                       # Total bandwidth to/from this memory (bytes/s)
system.mem_ctrls.bw_total::total           2771344401                       # Total bandwidth to/from this memory (bytes/s)
system.mem_ctrls.readReqs                    13683243                       # Number of read requests accepted
system.mem_ctrls.writeReqs                    8710461                       # Number of write requests accepted
system.mem_ctrls.readBursts                  13683243                       # Number of DRAM read bursts, including those serviced by the write queue
system.mem_ctrls.writeBursts                  8710461                       # Number of DRAM write bursts, including those merged in the write queue
system.mem_ctrls.bytesReadDRAM              875329152                       # Total number of bytes read from DRAM
system.mem_ctrls.bytesReadWrQ                  398400                       # Total number of bytes read from write queue
system.mem_ctrls.bytesWritten               557467904                       # Total number of bytes written to DRAM
system.mem_ctrls.bytesReadSys               875727552                       # Total read bytes from the system interface side
system.mem_ctrls.bytesWrittenSys            557469504                       # Total written bytes from the system interface side
system.mem_ctrls.servicedByWrQ                   6225                       # Number of DRAM read bursts serviced by the write queue
system.mem_ctrls.mergedWrBursts                     4                       # Number of DRAM write bursts merged with an existing one
system.mem_ctrls.neitherReadNorWriteReqs            0                       # Number of requests that are neither read nor write
system.mem_ctrls.perBankRdBursts::0            814390                       # Per bank write bursts
system.mem_ctrls.perBankRdBursts::1            863410                       # Per bank write bursts
system.mem_ctrls.perBankRdBursts::2            892379                       # Per bank write bursts
system.mem_ctrls.perBankRdBursts::3            953871                       # Per bank write bursts
system.mem_ctrls.perBankRdBursts::4            814587                       # Per bank write bursts
system.mem_ctrls.perBankRdBursts::5            888295                       # Per bank write bursts
system.mem_ctrls.perBankRdBursts::6            912247                       # Per bank write bursts
system.mem_ctrls.perBankRdBursts::7            911957                       # Per bank write bursts
system.mem_ctrls.perBankRdBursts::8            880701                       # Per bank write bursts
system.mem_ctrls.perBankRdBursts::9            782445                       # Per bank write bursts
system.mem_ctrls.perBankRdBursts::10           786800                       # Per bank write bursts
system.mem_ctrls.perBankRdBursts::11           825116                       # Per bank write bursts
system.mem_ctrls.perBankRdBursts::12           755785                       # Per bank write bursts
system.mem_ctrls.perBankRdBursts::13           879388                       # Per bank write bursts
system.mem_ctrls.perBankRdBursts::14           885046                       # Per bank write bursts
system.mem_ctrls.perBankRdBursts::15           830601                       # Per bank write bursts
system.mem_ctrls.perBankWrBursts::0            556984                       # Per bank write bursts
system.mem_ctrls.perBankWrBursts::1            542209                       # Per bank write bursts
system.mem_ctrls.perBankWrBursts::2            558453                       # Per bank write bursts
system.mem_ctrls.perBankWrBursts::3            549037                       # Per bank write bursts
system.mem_ctrls.perBankWrBursts::4            551233                       # Per bank write bursts
system.mem_ctrls.perBankWrBursts::5            546347                       # Per bank write bursts
system.mem_ctrls.perBankWrBursts::6            559728                       # Per bank write bursts
system.mem_ctrls.perBankWrBursts::7            540507                       # Per bank write bursts
system.mem_ctrls.perBankWrBursts::8            538097                       # Per bank write bursts
system.mem_ctrls.perBankWrBursts::9            525537                       # Per bank write bursts
system.mem_ctrls.perBankWrBursts::10           541879                       # Per bank write bursts
system.mem_ctrls.perBankWrBursts::11           527394                       # Per bank write bursts
system.mem_ctrls.perBankWrBursts::12           540865                       # Per bank write bursts
system.mem_ctrls.perBankWrBursts::13           539973                       # Per bank write bursts
system.mem_ctrls.perBankWrBursts::14           556280                       # Per bank write bursts
system.mem_ctrls.perBankWrBursts::15           535913                       # Per bank write bursts
system.mem_ctrls.numRdRetry                         0                       # Number of times read queue was full causing retry
system.mem_ctrls.numWrRetry                      1407                       # Number of times write queue was full causing retry
system.mem_ctrls.totGap                  517148732000                       # Total gap between requests
system.mem_ctrls.readPktSize::0                     0                       # Read request sizes (log2)
system.mem_ctrls.readPktSize::1                     0                       # Read request sizes (log2)
system.mem_ctrls.readPktSize::2                     0                       # Read request sizes (log2)
system.mem_ctrls.readPktSize::3                     0                       # Read request sizes (log2)
system.mem_ctrls.readPktSize::4                     0                       # Read request sizes (log2)
system.mem_ctrls.readPktSize::5                     0                       # Read request sizes (log2)
system.mem_ctrls.readPktSize::6              13683243                       # Read request sizes (log2)
system.mem_ctrls.writePktSize::0                    0                       # Write request sizes (log2)
system.mem_ctrls.writePktSize::1                    0                       # Write request sizes (log2)
system.mem_ctrls.writePktSize::2                    0                       # Write request sizes (log2)
system.mem_ctrls.writePktSize::3                    0                       # Write request sizes (log2)
system.mem_ctrls.writePktSize::4                    0                       # Write request sizes (log2)
system.mem_ctrls.writePktSize::5                    0                       # Write request sizes (log2)
system.mem_ctrls.writePktSize::6              8710461                       # Write request sizes (log2)
system.mem_ctrls.rdQLenPdf::0                 2896753                       # What read queue length does an incoming req see
system.mem_ctrls.rdQLenPdf::1                 3428612                       # What read queue length does an incoming req see
system.mem_ctrls.rdQLenPdf::2                 1723487                       # What read queue length does an incoming req see
system.mem_ctrls.rdQLenPdf::3                 1248983                       # What read queue length does an incoming req see
system.mem_ctrls.rdQLenPdf::4                 1005975                       # What read queue length does an incoming req see
system.mem_ctrls.rdQLenPdf::5                  799342                       # What read queue length does an incoming req see
system.mem_ctrls.rdQLenPdf::6                  658210                       # What read queue length does an incoming req see
system.mem_ctrls.rdQLenPdf::7                  604251                       # What read queue length does an incoming req see
system.mem_ctrls.rdQLenPdf::8                  527161                       # What read queue length does an incoming req see
system.mem_ctrls.rdQLenPdf::9                  389965                       # What read queue length does an incoming req see
system.mem_ctrls.rdQLenPdf::10                 230601                       # What read queue length does an incoming req see
system.mem_ctrls.rdQLenPdf::11                  98255                       # What read queue length does an incoming req see
system.mem_ctrls.rdQLenPdf::12                  39195                       # What read queue length does an incoming req see
system.mem_ctrls.rdQLenPdf::13                  21283                       # What read queue length does an incoming req see
system.mem_ctrls.rdQLenPdf::14                   3925                       # What read queue length does an incoming req see
system.mem_ctrls.rdQLenPdf::15                   1020                       # What read queue length does an incoming req see
system.mem_ctrls.rdQLenPdf::16                      0                       # What read queue length does an incoming req see
system.mem_ctrls.rdQLenPdf::17                      0                       # What read queue length does an incoming req see
system.mem_ctrls.rdQLenPdf::18                      0                       # What read queue length does an incoming req see
system.mem_ctrls.rdQLenPdf::19                      0                       # What read queue length does an incoming req see
system.mem_ctrls.rdQLenPdf::20                      0                       # What read queue length does an incoming req see
system.mem_ctrls.rdQLenPdf::21                      0                       # What read queue length does an incoming req see
system.mem_ctrls.rdQLenPdf::22                      0                       # What read queue length does an incoming req see
system.mem_ctrls.rdQLenPdf::23                      0                       # What read queue length does an incoming req see
system.mem_ctrls.rdQLenPdf::24                      0                       # What read queue length does an incoming req see
system.mem_ctrls.rdQLenPdf::25                      0                       # What read queue length does an incoming req see
system.mem_ctrls.rdQLenPdf::26                      0                       # What read queue length does an incoming req see
system.mem_ctrls.rdQLenPdf::27                      0                       # What read queue length does an incoming req see
system.mem_ctrls.rdQLenPdf::28                      0                       # What read queue length does an incoming req see
system.mem_ctrls.rdQLenPdf::29                      0                       # What read queue length does an incoming req see
system.mem_ctrls.rdQLenPdf::30                      0                       # What read queue length does an incoming req see
system.mem_ctrls.rdQLenPdf::31                      0                       # What read queue length does an incoming req see
system.mem_ctrls.wrQLenPdf::0                       1                       # What write queue length does an incoming req see
system.mem_ctrls.wrQLenPdf::1                       1                       # What write queue length does an incoming req see
system.mem_ctrls.wrQLenPdf::2                       1                       # What write queue length does an incoming req see
system.mem_ctrls.wrQLenPdf::3                       1                       # What write queue length does an incoming req see
system.mem_ctrls.wrQLenPdf::4                       1                       # What write queue length does an incoming req see
system.mem_ctrls.wrQLenPdf::5                       1                       # What write queue length does an incoming req see
system.mem_ctrls.wrQLenPdf::6                       1                       # What write queue length does an incoming req see
system.mem_ctrls.wrQLenPdf::7                       1                       # What write queue length does an incoming req see
system.mem_ctrls.wrQLenPdf::8                       1                       # What write queue length does an incoming req see
system.mem_ctrls.wrQLenPdf::9                       1                       # What write queue length does an incoming req see
system.mem_ctrls.wrQLenPdf::10                      1                       # What write queue length does an incoming req see
system.mem_ctrls.wrQLenPdf::11                      1                       # What write queue length does an incoming req see
system.mem_ctrls.wrQLenPdf::12                      1                       # What write queue length does an incoming req see
system.mem_ctrls.wrQLenPdf::13                      1                       # What write queue length does an incoming req see
system.mem_ctrls.wrQLenPdf::14                      1                       # What write queue length does an incoming req see
system.mem_ctrls.wrQLenPdf::15                  12321                       # What write queue length does an incoming req see
system.mem_ctrls.wrQLenPdf::16                  15445                       # What write queue length does an incoming req see
system.mem_ctrls.wrQLenPdf::17                  78227                       # What write queue length does an incoming req see
system.mem_ctrls.wrQLenPdf::18                 135814                       # What write queue length does an incoming req see
system.mem_ctrls.wrQLenPdf::19                 185308                       # What write queue length does an incoming req see
system.mem_ctrls.wrQLenPdf::20                 243238                       # What write queue length does an incoming req see
system.mem_ctrls.wrQLenPdf::21                 325124                       # What write queue length does an incoming req see
system.mem_ctrls.wrQLenPdf::22                 393806                       # What write queue length does an incoming req see
system.mem_ctrls.wrQLenPdf::23                 453928                       # What write queue length does an incoming req see
system.mem_ctrls.wrQLenPdf::24                 507089                       # What write queue length does an incoming req see
system.mem_ctrls.wrQLenPdf::25                 558264                       # What write queue length does an incoming req see
system.mem_ctrls.wrQLenPdf::26                 610249                       # What write queue length does an incoming req see
system.mem_ctrls.wrQLenPdf::27                 660863                       # What write queue length does an incoming req see
system.mem_ctrls.wrQLenPdf::28                 721748                       # What write queue length does an incoming req see
system.mem_ctrls.wrQLenPdf::29                 804539                       # What write queue length does an incoming req see
system.mem_ctrls.wrQLenPdf::30                 830565                       # What write queue length does an incoming req see
system.mem_ctrls.wrQLenPdf::31                 814855                       # What write queue length does an incoming req see
system.mem_ctrls.wrQLenPdf::32                 724630                       # What write queue length does an incoming req see
system.mem_ctrls.wrQLenPdf::33                 151310                       # What write queue length does an incoming req see
system.mem_ctrls.wrQLenPdf::34                  95824                       # What write queue length does an incoming req see
system.mem_ctrls.wrQLenPdf::35                  64420                       # What write queue length does an incoming req see
system.mem_ctrls.wrQLenPdf::36                  46377                       # What write queue length does an incoming req see
system.mem_ctrls.wrQLenPdf::37                  34573                       # What write queue length does an incoming req see
system.mem_ctrls.wrQLenPdf::38                  26734                       # What write queue length does an incoming req see
system.mem_ctrls.wrQLenPdf::39                  20947                       # What write queue length does an incoming req see
system.mem_ctrls.wrQLenPdf::40                  17417                       # What write queue length does an incoming req see
system.mem_ctrls.wrQLenPdf::41                  14715                       # What write queue length does an incoming req see
system.mem_ctrls.wrQLenPdf::42                  13040                       # What write queue length does an incoming req see
system.mem_ctrls.wrQLenPdf::43                  11727                       # What write queue length does an incoming req see
system.mem_ctrls.wrQLenPdf::44                  10525                       # What write queue length does an incoming req see
system.mem_ctrls.wrQLenPdf::45                   9693                       # What write queue length does an incoming req see
system.mem_ctrls.wrQLenPdf::46                   9180                       # What write queue length does an incoming req see
system.mem_ctrls.wrQLenPdf::47                   8847                       # What write queue length does an incoming req see
system.mem_ctrls.wrQLenPdf::48                   8384                       # What write queue length does an incoming req see
system.mem_ctrls.wrQLenPdf::49                   8004                       # What write queue length does an incoming req see
system.mem_ctrls.wrQLenPdf::50                   8251                       # What write queue length does an incoming req see
system.mem_ctrls.wrQLenPdf::51                   8182                       # What write queue length does an incoming req see
system.mem_ctrls.wrQLenPdf::52                   8440                       # What write queue length does an incoming req see
system.mem_ctrls.wrQLenPdf::53                   8288                       # What write queue length does an incoming req see
system.mem_ctrls.wrQLenPdf::54                   8442                       # What write queue length does an incoming req see
system.mem_ctrls.wrQLenPdf::55                   9015                       # What write queue length does an incoming req see
system.mem_ctrls.wrQLenPdf::56                   6326                       # What write queue length does an incoming req see
system.mem_ctrls.wrQLenPdf::57                   5136                       # What write queue length does an incoming req see
system.mem_ctrls.wrQLenPdf::58                   4537                       # What write queue length does an incoming req see
system.mem_ctrls.wrQLenPdf::59                   3680                       # What write queue length does an incoming req see
system.mem_ctrls.wrQLenPdf::60                   3090                       # What write queue length does an incoming req see
system.mem_ctrls.wrQLenPdf::61                   2678                       # What write queue length does an incoming req see
system.mem_ctrls.wrQLenPdf::62                   2311                       # What write queue length does an incoming req see
system.mem_ctrls.wrQLenPdf::63                   4336                       # What write queue length does an incoming req see
system.mem_ctrls.bytesPerActivate::samples     11121195                       # Bytes accessed per row activation
system.mem_ctrls.bytesPerActivate::mean    128.834673                       # Bytes accessed per row activation
system.mem_ctrls.bytesPerActivate::gmean    89.261393                       # Bytes accessed per row activation
system.mem_ctrls.bytesPerActivate::stdev   178.319639                       # Bytes accessed per row activation
system.mem_ctrls.bytesPerActivate::0-127      8368433     75.25%     75.25% # Bytes accessed per row activation
system.mem_ctrls.bytesPerActivate::128-255      1556420     14.00%     89.24% # Bytes accessed per row activation
system.mem_ctrls.bytesPerActivate::256-383       411085      3.70%     92.94% # Bytes accessed per row activation
system.mem_ctrls.bytesPerActivate::384-511       179233      1.61%     94.55% # Bytes accessed per row activation
system.mem_ctrls.bytesPerActivate::512-639       190845      1.72%     96.27% # Bytes accessed per row activation
system.mem_ctrls.bytesPerActivate::640-767        89133      0.80%     97.07% # Bytes accessed per row activation
system.mem_ctrls.bytesPerActivate::768-895        55104      0.50%     97.56% # Bytes accessed per row activation
system.mem_ctrls.bytesPerActivate::896-1023        63812      0.57%     98.14% # Bytes accessed per row activation
system.mem_ctrls.bytesPerActivate::1024-1151       207130      1.86%    100.00% # Bytes accessed per row activation
system.mem_ctrls.bytesPerActivate::total     11121195                       # Bytes accessed per row activation
system.mem_ctrls.rdPerTurnAround::samples       540378                       # Reads before turning the bus around for writes
system.mem_ctrls.rdPerTurnAround::mean      25.347673                       # Reads before turning the bus around for writes
system.mem_ctrls.rdPerTurnAround::stdev     41.408580                       # Reads before turning the bus around for writes
system.mem_ctrls.rdPerTurnAround::0-1023       540369    100.00%    100.00% # Reads before turning the bus around for writes
system.mem_ctrls.rdPerTurnAround::1024-2047            8      0.00%    100.00% # Reads before turning the bus around for writes
system.mem_ctrls.rdPerTurnAround::26624-27647            1      0.00%    100.00% # Reads before turning the bus around for writes
system.mem_ctrls.rdPerTurnAround::total        540378                       # Reads before turning the bus around for writes
system.mem_ctrls.wrPerTurnAround::samples       540378                       # Writes before turning the bus around for reads
system.mem_ctrls.wrPerTurnAround::mean      16.119154                       # Writes before turning the bus around for reads
system.mem_ctrls.wrPerTurnAround::gmean     16.101819                       # Writes before turning the bus around for reads
system.mem_ctrls.wrPerTurnAround::stdev      0.986523                       # Writes before turning the bus around for reads
system.mem_ctrls.wrPerTurnAround::16-19        535182     99.04%     99.04% # Writes before turning the bus around for reads
system.mem_ctrls.wrPerTurnAround::20-23          4238      0.78%     99.82% # Writes before turning the bus around for reads
system.mem_ctrls.wrPerTurnAround::24-27           586      0.11%     99.93% # Writes before turning the bus around for reads
system.mem_ctrls.wrPerTurnAround::28-31           149      0.03%     99.96% # Writes before turning the bus around for reads
system.mem_ctrls.wrPerTurnAround::32-35            74      0.01%     99.97% # Writes before turning the bus around for reads
system.mem_ctrls.wrPerTurnAround::36-39            39      0.01%     99.98% # Writes before turning the bus around for reads
system.mem_ctrls.wrPerTurnAround::40-43            17      0.00%     99.98% # Writes before turning the bus around for reads
system.mem_ctrls.wrPerTurnAround::44-47            17      0.00%     99.99% # Writes before turning the bus around for reads
system.mem_ctrls.wrPerTurnAround::48-51            15      0.00%     99.99% # Writes before turning the bus around for reads
system.mem_ctrls.wrPerTurnAround::52-55             9      0.00%     99.99% # Writes before turning the bus around for reads
system.mem_ctrls.wrPerTurnAround::56-59             4      0.00%     99.99% # Writes before turning the bus around for reads
system.mem_ctrls.wrPerTurnAround::60-63             8      0.00%     99.99% # Writes before turning the bus around for reads
system.mem_ctrls.wrPerTurnAround::64-67            12      0.00%     99.99% # Writes before turning the bus around for reads
system.mem_ctrls.wrPerTurnAround::68-71             6      0.00%    100.00% # Writes before turning the bus around for reads
system.mem_ctrls.wrPerTurnAround::72-75             6      0.00%    100.00% # Writes before turning the bus around for reads
system.mem_ctrls.wrPerTurnAround::76-79             3      0.00%    100.00% # Writes before turning the bus around for reads
system.mem_ctrls.wrPerTurnAround::80-83             3      0.00%    100.00% # Writes before turning the bus around for reads
system.mem_ctrls.wrPerTurnAround::84-87             1      0.00%    100.00% # Writes before turning the bus around for reads
system.mem_ctrls.wrPerTurnAround::88-91             2      0.00%    100.00% # Writes before turning the bus around for reads
system.mem_ctrls.wrPerTurnAround::92-95             2      0.00%    100.00% # Writes before turning the bus around for reads
system.mem_ctrls.wrPerTurnAround::104-107            2      0.00%    100.00% # Writes before turning the bus around for reads
system.mem_ctrls.wrPerTurnAround::108-111            1      0.00%    100.00% # Writes before turning the bus around for reads
system.mem_ctrls.wrPerTurnAround::124-127            1      0.00%    100.00% # Writes before turning the bus around for reads
system.mem_ctrls.wrPerTurnAround::136-139            1      0.00%    100.00% # Writes before turning the bus around for reads
system.mem_ctrls.wrPerTurnAround::total        540378                       # Writes before turning the bus around for reads
system.mem_ctrls.totQLat                 1129618821792                       # Total ticks spent queuing
system.mem_ctrls.totMemAccLat            1386062909292                       # Total ticks spent from burst creation until serviced by the DRAM
system.mem_ctrls.totBusLat                68385090000                       # Total ticks spent in databus transfers
system.mem_ctrls.avgQLat                     82592.48                       # Average queueing delay per DRAM burst
system.mem_ctrls.avgBusLat                    5000.00                       # Average bus latency per DRAM burst
system.mem_ctrls.avgMemAccLat               101342.48                       # Average memory access latency per DRAM burst
system.mem_ctrls.avgRdBW                      1692.61                       # Average DRAM read bandwidth in MiByte/s
system.mem_ctrls.avgWrBW                      1077.96                       # Average achieved write bandwidth in MiByte/s
system.mem_ctrls.avgRdBWSys                   1693.38                       # Average system read bandwidth in MiByte/s
system.mem_ctrls.avgWrBWSys                   1077.97                       # Average system write bandwidth in MiByte/s
system.mem_ctrls.peakBW                      12800.00                       # Theoretical peak bandwidth in MiByte/s
system.mem_ctrls.busUtil                        21.65                       # Data bus utilization in percentage
system.mem_ctrls.busUtilRead                    13.22                       # Data bus utilization in percentage for reads
system.mem_ctrls.busUtilWrite                    8.42                       # Data bus utilization in percentage for writes
system.mem_ctrls.avgRdQLen                       3.70                       # Average read queue length when enqueuing
system.mem_ctrls.avgWrQLen                      27.42                       # Average write queue length when enqueuing
system.mem_ctrls.readRowHits                  8187465                       # Number of row buffer hits during reads
system.mem_ctrls.writeRowHits                 3078790                       # Number of row buffer hits during writes
system.mem_ctrls.readRowHitRate                 59.86                       # Row buffer hit rate for reads
system.mem_ctrls.writeRowHitRate                35.35                       # Row buffer hit rate for writes
system.mem_ctrls.avgGap                      23093.49                       # Average gap between requests
system.mem_ctrls.pageHitRate                    50.32                       # Row buffer hit rate, read and write combined
system.mem_ctrls_0.actEnergy              43900715880                       # Energy for activate commands per rank (pJ)
system.mem_ctrls_0.preEnergy              23953763625                       # Energy for precharge commands per rank (pJ)
system.mem_ctrls_0.readEnergy             55078116600                       # Energy for read commands per rank (pJ)
system.mem_ctrls_0.writeEnergy            28540991520                       # Energy for write commands per rank (pJ)
system.mem_ctrls_0.refreshEnergy          33822291360                       # Energy for refresh commands per rank (pJ)
system.mem_ctrls_0.actBackEnergy         348734937600                       # Energy for active background per rank (pJ)
system.mem_ctrls_0.preBackEnergy           4791750000                       # Energy for precharge background per rank (pJ)
system.mem_ctrls_0.totalEnergy           538822566585                       # Total energy per rank (pJ)
system.mem_ctrls_0.averagePower           1040.534170                       # Core power per rank (mW)
system.mem_ctrls_0.memoryStateTime::IDLE   5775044105                       # Time in different power states
system.mem_ctrls_0.memoryStateTime::REF   17268680000                       # Time in different power states
system.mem_ctrls_0.memoryStateTime::PRE_PDN            0                       # Time in different power states
system.mem_ctrls_0.memoryStateTime::ACT  494103475645                       # Time in different power states
system.mem_ctrls_0.memoryStateTime::ACT_PDN            0                       # Time in different power states
system.mem_ctrls_1.actEnergy              40228665120                       # Energy for activate commands per rank (pJ)
system.mem_ctrls_1.preEnergy              21950164500                       # Energy for precharge commands per rank (pJ)
system.mem_ctrls_1.readEnergy             51760581600                       # Energy for read commands per rank (pJ)
system.mem_ctrls_1.writeEnergy            27902406960                       # Energy for write commands per rank (pJ)
system.mem_ctrls_1.refreshEnergy          33822291360                       # Energy for refresh commands per rank (pJ)
system.mem_ctrls_1.actBackEnergy         346647453390                       # Energy for active background per rank (pJ)
system.mem_ctrls_1.preBackEnergy           6622848000                       # Energy for precharge background per rank (pJ)
system.mem_ctrls_1.totalEnergy           528934410930                       # Total energy per rank (pJ)
system.mem_ctrls_1.averagePower           1021.438991                       # Core power per rank (mW)
system.mem_ctrls_1.memoryStateTime::IDLE   8651552071                       # Time in different power states
system.mem_ctrls_1.memoryStateTime::REF   17268680000                       # Time in different power states
system.mem_ctrls_1.memoryStateTime::PRE_PDN            0                       # Time in different power states
system.mem_ctrls_1.memoryStateTime::ACT  491226920429                       # Time in different power states
system.mem_ctrls_1.memoryStateTime::ACT_PDN            0                       # Time in different power states
system.realview.nvmem.pwrStateResidencyTicks::UNDEFINED 3753682512500                       # Cumulative time (in ticks) in various power states
system.realview.vram.pwrStateResidencyTicks::UNDEFINED 3753682512500                       # Cumulative time (in ticks) in various power states
system.pwrStateResidencyTicks::UNDEFINED 3753682512500                       # Cumulative time (in ticks) in various power states
system.bridge.pwrStateResidencyTicks::UNDEFINED 3753682512500                       # Cumulative time (in ticks) in various power states
system.cf0.dma_read_full_pages                      0                       # Number of full page size DMA reads (not PRD).
system.cf0.dma_read_bytes                           0                       # Number of bytes transfered via DMA reads (not PRD).
system.cf0.dma_read_txs                             0                       # Number of DMA read transactions (not PRD).
system.cf0.dma_write_full_pages                  2334                       # Number of full page size DMA writes.
system.cf0.dma_write_bytes                    9636864                       # Number of bytes transfered via DMA writes.
system.cf0.dma_write_txs                         2404                       # Number of DMA write transactions.
system.cpu_voltage_domain.voltage                   1                       # Voltage in Volts
system.cpu_clk_domain.clock                       500                       # Clock period in ticks
system.cpu0.dstage2_mmu.stage2_tlb.walker.pwrStateResidencyTicks::UNDEFINED 3753682512500                       # Cumulative time (in ticks) in various power states
system.cpu0.dstage2_mmu.stage2_tlb.walker.walks            0                       # Table walker walks requested
system.cpu0.dstage2_mmu.stage2_tlb.walker.walkRequestOrigin_Requested::Data            0                       # Table walker requests started/completed, data/inst
system.cpu0.dstage2_mmu.stage2_tlb.walker.walkRequestOrigin_Requested::Inst            0                       # Table walker requests started/completed, data/inst
system.cpu0.dstage2_mmu.stage2_tlb.walker.walkRequestOrigin_Requested::total            0                       # Table walker requests started/completed, data/inst
system.cpu0.dstage2_mmu.stage2_tlb.walker.walkRequestOrigin_Completed::Data            0                       # Table walker requests started/completed, data/inst
system.cpu0.dstage2_mmu.stage2_tlb.walker.walkRequestOrigin_Completed::Inst            0                       # Table walker requests started/completed, data/inst
system.cpu0.dstage2_mmu.stage2_tlb.walker.walkRequestOrigin_Completed::total            0                       # Table walker requests started/completed, data/inst
system.cpu0.dstage2_mmu.stage2_tlb.walker.walkRequestOrigin::total            0                       # Table walker requests started/completed, data/inst
system.cpu0.dstage2_mmu.stage2_tlb.inst_hits            0                       # ITB inst hits
system.cpu0.dstage2_mmu.stage2_tlb.inst_misses            0                       # ITB inst misses
system.cpu0.dstage2_mmu.stage2_tlb.read_hits            0                       # DTB read hits
system.cpu0.dstage2_mmu.stage2_tlb.read_misses            0                       # DTB read misses
system.cpu0.dstage2_mmu.stage2_tlb.write_hits            0                       # DTB write hits
system.cpu0.dstage2_mmu.stage2_tlb.write_misses            0                       # DTB write misses
system.cpu0.dstage2_mmu.stage2_tlb.flush_tlb            0                       # Number of times complete TLB was flushed
system.cpu0.dstage2_mmu.stage2_tlb.flush_tlb_mva            0                       # Number of times TLB was flushed by MVA
system.cpu0.dstage2_mmu.stage2_tlb.flush_tlb_mva_asid            0                       # Number of times TLB was flushed by MVA & ASID
system.cpu0.dstage2_mmu.stage2_tlb.flush_tlb_asid            0                       # Number of times TLB was flushed by ASID
system.cpu0.dstage2_mmu.stage2_tlb.flush_entries            0                       # Number of entries that have been flushed from TLB
system.cpu0.dstage2_mmu.stage2_tlb.align_faults            0                       # Number of TLB faults due to alignment restrictions
system.cpu0.dstage2_mmu.stage2_tlb.prefetch_faults            0                       # Number of TLB faults due to prefetch
system.cpu0.dstage2_mmu.stage2_tlb.domain_faults            0                       # Number of TLB faults due to domain restrictions
system.cpu0.dstage2_mmu.stage2_tlb.perms_faults            0                       # Number of TLB faults due to permissions restrictions
system.cpu0.dstage2_mmu.stage2_tlb.read_accesses            0                       # DTB read accesses
system.cpu0.dstage2_mmu.stage2_tlb.write_accesses            0                       # DTB write accesses
system.cpu0.dstage2_mmu.stage2_tlb.inst_accesses            0                       # ITB inst accesses
system.cpu0.dstage2_mmu.stage2_tlb.hits             0                       # DTB hits
system.cpu0.dstage2_mmu.stage2_tlb.misses            0                       # DTB misses
system.cpu0.dstage2_mmu.stage2_tlb.accesses            0                       # DTB accesses
system.cpu0.dtb.walker.pwrStateResidencyTicks::UNDEFINED 3753682512500                       # Cumulative time (in ticks) in various power states
system.cpu0.dtb.walker.walks                        0                       # Table walker walks requested
system.cpu0.dtb.walker.walkRequestOrigin_Requested::Data            0                       # Table walker requests started/completed, data/inst
system.cpu0.dtb.walker.walkRequestOrigin_Requested::Inst            0                       # Table walker requests started/completed, data/inst
system.cpu0.dtb.walker.walkRequestOrigin_Requested::total            0                       # Table walker requests started/completed, data/inst
system.cpu0.dtb.walker.walkRequestOrigin_Completed::Data            0                       # Table walker requests started/completed, data/inst
system.cpu0.dtb.walker.walkRequestOrigin_Completed::Inst            0                       # Table walker requests started/completed, data/inst
system.cpu0.dtb.walker.walkRequestOrigin_Completed::total            0                       # Table walker requests started/completed, data/inst
system.cpu0.dtb.walker.walkRequestOrigin::total            0                       # Table walker requests started/completed, data/inst
system.cpu0.dtb.inst_hits                           0                       # ITB inst hits
system.cpu0.dtb.inst_misses                         0                       # ITB inst misses
system.cpu0.dtb.read_hits                           0                       # DTB read hits
system.cpu0.dtb.read_misses                         0                       # DTB read misses
system.cpu0.dtb.write_hits                          0                       # DTB write hits
system.cpu0.dtb.write_misses                        0                       # DTB write misses
system.cpu0.dtb.flush_tlb                           0                       # Number of times complete TLB was flushed
system.cpu0.dtb.flush_tlb_mva                       0                       # Number of times TLB was flushed by MVA
system.cpu0.dtb.flush_tlb_mva_asid                  0                       # Number of times TLB was flushed by MVA & ASID
system.cpu0.dtb.flush_tlb_asid                      0                       # Number of times TLB was flushed by ASID
system.cpu0.dtb.flush_entries                       0                       # Number of entries that have been flushed from TLB
system.cpu0.dtb.align_faults                        0                       # Number of TLB faults due to alignment restrictions
system.cpu0.dtb.prefetch_faults                     0                       # Number of TLB faults due to prefetch
system.cpu0.dtb.domain_faults                       0                       # Number of TLB faults due to domain restrictions
system.cpu0.dtb.perms_faults                        0                       # Number of TLB faults due to permissions restrictions
system.cpu0.dtb.read_accesses                       0                       # DTB read accesses
system.cpu0.dtb.write_accesses                      0                       # DTB write accesses
system.cpu0.dtb.inst_accesses                       0                       # ITB inst accesses
system.cpu0.dtb.hits                                0                       # DTB hits
system.cpu0.dtb.misses                              0                       # DTB misses
system.cpu0.dtb.accesses                            0                       # DTB accesses
system.cpu0.istage2_mmu.stage2_tlb.walker.pwrStateResidencyTicks::UNDEFINED 3753682512500                       # Cumulative time (in ticks) in various power states
system.cpu0.istage2_mmu.stage2_tlb.walker.walks            0                       # Table walker walks requested
system.cpu0.istage2_mmu.stage2_tlb.walker.walkRequestOrigin_Requested::Data            0                       # Table walker requests started/completed, data/inst
system.cpu0.istage2_mmu.stage2_tlb.walker.walkRequestOrigin_Requested::Inst            0                       # Table walker requests started/completed, data/inst
system.cpu0.istage2_mmu.stage2_tlb.walker.walkRequestOrigin_Requested::total            0                       # Table walker requests started/completed, data/inst
system.cpu0.istage2_mmu.stage2_tlb.walker.walkRequestOrigin_Completed::Data            0                       # Table walker requests started/completed, data/inst
system.cpu0.istage2_mmu.stage2_tlb.walker.walkRequestOrigin_Completed::Inst            0                       # Table walker requests started/completed, data/inst
system.cpu0.istage2_mmu.stage2_tlb.walker.walkRequestOrigin_Completed::total            0                       # Table walker requests started/completed, data/inst
system.cpu0.istage2_mmu.stage2_tlb.walker.walkRequestOrigin::total            0                       # Table walker requests started/completed, data/inst
system.cpu0.istage2_mmu.stage2_tlb.inst_hits            0                       # ITB inst hits
system.cpu0.istage2_mmu.stage2_tlb.inst_misses            0                       # ITB inst misses
system.cpu0.istage2_mmu.stage2_tlb.read_hits            0                       # DTB read hits
system.cpu0.istage2_mmu.stage2_tlb.read_misses            0                       # DTB read misses
system.cpu0.istage2_mmu.stage2_tlb.write_hits            0                       # DTB write hits
system.cpu0.istage2_mmu.stage2_tlb.write_misses            0                       # DTB write misses
system.cpu0.istage2_mmu.stage2_tlb.flush_tlb            0                       # Number of times complete TLB was flushed
system.cpu0.istage2_mmu.stage2_tlb.flush_tlb_mva            0                       # Number of times TLB was flushed by MVA
system.cpu0.istage2_mmu.stage2_tlb.flush_tlb_mva_asid            0                       # Number of times TLB was flushed by MVA & ASID
system.cpu0.istage2_mmu.stage2_tlb.flush_tlb_asid            0                       # Number of times TLB was flushed by ASID
system.cpu0.istage2_mmu.stage2_tlb.flush_entries            0                       # Number of entries that have been flushed from TLB
system.cpu0.istage2_mmu.stage2_tlb.align_faults            0                       # Number of TLB faults due to alignment restrictions
system.cpu0.istage2_mmu.stage2_tlb.prefetch_faults            0                       # Number of TLB faults due to prefetch
system.cpu0.istage2_mmu.stage2_tlb.domain_faults            0                       # Number of TLB faults due to domain restrictions
system.cpu0.istage2_mmu.stage2_tlb.perms_faults            0                       # Number of TLB faults due to permissions restrictions
system.cpu0.istage2_mmu.stage2_tlb.read_accesses            0                       # DTB read accesses
system.cpu0.istage2_mmu.stage2_tlb.write_accesses            0                       # DTB write accesses
system.cpu0.istage2_mmu.stage2_tlb.inst_accesses            0                       # ITB inst accesses
system.cpu0.istage2_mmu.stage2_tlb.hits             0                       # DTB hits
system.cpu0.istage2_mmu.stage2_tlb.misses            0                       # DTB misses
system.cpu0.istage2_mmu.stage2_tlb.accesses            0                       # DTB accesses
system.cpu0.itb.walker.pwrStateResidencyTicks::UNDEFINED 3753682512500                       # Cumulative time (in ticks) in various power states
system.cpu0.itb.walker.walks                        0                       # Table walker walks requested
system.cpu0.itb.walker.walkRequestOrigin_Requested::Data            0                       # Table walker requests started/completed, data/inst
system.cpu0.itb.walker.walkRequestOrigin_Requested::Inst            0                       # Table walker requests started/completed, data/inst
system.cpu0.itb.walker.walkRequestOrigin_Requested::total            0                       # Table walker requests started/completed, data/inst
system.cpu0.itb.walker.walkRequestOrigin_Completed::Data            0                       # Table walker requests started/completed, data/inst
system.cpu0.itb.walker.walkRequestOrigin_Completed::Inst            0                       # Table walker requests started/completed, data/inst
system.cpu0.itb.walker.walkRequestOrigin_Completed::total            0                       # Table walker requests started/completed, data/inst
system.cpu0.itb.walker.walkRequestOrigin::total            0                       # Table walker requests started/completed, data/inst
system.cpu0.itb.inst_hits                           0                       # ITB inst hits
system.cpu0.itb.inst_misses                         0                       # ITB inst misses
system.cpu0.itb.read_hits                           0                       # DTB read hits
system.cpu0.itb.read_misses                         0                       # DTB read misses
system.cpu0.itb.write_hits                          0                       # DTB write hits
system.cpu0.itb.write_misses                        0                       # DTB write misses
system.cpu0.itb.flush_tlb                           0                       # Number of times complete TLB was flushed
system.cpu0.itb.flush_tlb_mva                       0                       # Number of times TLB was flushed by MVA
system.cpu0.itb.flush_tlb_mva_asid                  0                       # Number of times TLB was flushed by MVA & ASID
system.cpu0.itb.flush_tlb_asid                      0                       # Number of times TLB was flushed by ASID
system.cpu0.itb.flush_entries                       0                       # Number of entries that have been flushed from TLB
system.cpu0.itb.align_faults                        0                       # Number of TLB faults due to alignment restrictions
system.cpu0.itb.prefetch_faults                     0                       # Number of TLB faults due to prefetch
system.cpu0.itb.domain_faults                       0                       # Number of TLB faults due to domain restrictions
system.cpu0.itb.perms_faults                        0                       # Number of TLB faults due to permissions restrictions
system.cpu0.itb.read_accesses                       0                       # DTB read accesses
system.cpu0.itb.write_accesses                      0                       # DTB write accesses
system.cpu0.itb.inst_accesses                       0                       # ITB inst accesses
system.cpu0.itb.hits                                0                       # DTB hits
system.cpu0.itb.misses                              0                       # DTB misses
system.cpu0.itb.accesses                            0                       # DTB accesses
system.cpu0.pwrStateResidencyTicks::ON   517835317000                       # Cumulative time (in ticks) in various power states
system.cpu0.numCycles                               0                       # number of cpu cycles simulated
system.cpu0.numWorkItemsStarted                     0                       # number of work items this cpu started
system.cpu0.numWorkItemsCompleted                   0                       # number of work items this cpu completed
system.cpu0.kern.inst.arm                           0                       # number of arm instructions executed
system.cpu0.kern.inst.quiesce                     487                       # number of quiesce instructions executed
system.cpu0.committedInsts                          0                       # Number of instructions committed
system.cpu0.committedOps                            0                       # Number of ops (including micro ops) committed
system.cpu0.num_int_alu_accesses                    0                       # Number of integer alu accesses
system.cpu0.num_fp_alu_accesses                     0                       # Number of float alu accesses
system.cpu0.num_func_calls                          0                       # number of times a function call or return occured
system.cpu0.num_conditional_control_insts            0                       # number of instructions that are conditional controls
system.cpu0.num_int_insts                           0                       # number of integer instructions
system.cpu0.num_fp_insts                            0                       # number of float instructions
system.cpu0.num_int_register_reads                  0                       # number of times the integer registers were read
system.cpu0.num_int_register_writes                 0                       # number of times the integer registers were written
system.cpu0.num_fp_register_reads                   0                       # number of times the floating registers were read
system.cpu0.num_fp_register_writes                  0                       # number of times the floating registers were written
system.cpu0.num_mem_refs                            0                       # number of memory refs
system.cpu0.num_load_insts                          0                       # Number of load instructions
system.cpu0.num_store_insts                         0                       # Number of store instructions
system.cpu0.num_idle_cycles                         0                       # Number of idle cycles
system.cpu0.num_busy_cycles                         0                       # Number of busy cycles
system.cpu0.not_idle_fraction                       0                       # Percentage of non-idle cycles
system.cpu0.idle_fraction                           1                       # Percentage of idle cycles
system.cpu0.op_class::No_OpClass                    0                       # Class of executed instruction
system.cpu0.op_class::IntAlu                        0                       # Class of executed instruction
system.cpu0.op_class::IntMult                       0                       # Class of executed instruction
system.cpu0.op_class::IntDiv                        0                       # Class of executed instruction
system.cpu0.op_class::FloatAdd                      0                       # Class of executed instruction
system.cpu0.op_class::FloatCmp                      0                       # Class of executed instruction
system.cpu0.op_class::FloatCvt                      0                       # Class of executed instruction
system.cpu0.op_class::FloatMult                     0                       # Class of executed instruction
system.cpu0.op_class::FloatDiv                      0                       # Class of executed instruction
system.cpu0.op_class::FloatSqrt                     0                       # Class of executed instruction
system.cpu0.op_class::SimdAdd                       0                       # Class of executed instruction
system.cpu0.op_class::SimdAddAcc                    0                       # Class of executed instruction
system.cpu0.op_class::SimdAlu                       0                       # Class of executed instruction
system.cpu0.op_class::SimdCmp                       0                       # Class of executed instruction
system.cpu0.op_class::SimdCvt                       0                       # Class of executed instruction
system.cpu0.op_class::SimdMisc                      0                       # Class of executed instruction
system.cpu0.op_class::SimdMult                      0                       # Class of executed instruction
system.cpu0.op_class::SimdMultAcc                   0                       # Class of executed instruction
system.cpu0.op_class::SimdShift                     0                       # Class of executed instruction
system.cpu0.op_class::SimdShiftAcc                  0                       # Class of executed instruction
system.cpu0.op_class::SimdSqrt                      0                       # Class of executed instruction
system.cpu0.op_class::SimdFloatAdd                  0                       # Class of executed instruction
system.cpu0.op_class::SimdFloatAlu                  0                       # Class of executed instruction
system.cpu0.op_class::SimdFloatCmp                  0                       # Class of executed instruction
system.cpu0.op_class::SimdFloatCvt                  0                       # Class of executed instruction
system.cpu0.op_class::SimdFloatDiv                  0                       # Class of executed instruction
system.cpu0.op_class::SimdFloatMisc                 0                       # Class of executed instruction
system.cpu0.op_class::SimdFloatMult                 0                       # Class of executed instruction
system.cpu0.op_class::SimdFloatMultAcc              0                       # Class of executed instruction
system.cpu0.op_class::SimdFloatSqrt                 0                       # Class of executed instruction
system.cpu0.op_class::MemRead                       0                       # Class of executed instruction
system.cpu0.op_class::MemWrite                      0                       # Class of executed instruction
system.cpu0.op_class::IprAccess                     0                       # Class of executed instruction
system.cpu0.op_class::InstPrefetch                  0                       # Class of executed instruction
system.cpu0.op_class::total                         0                       # Class of executed instruction
system.cpu0.dcache.tags.pwrStateResidencyTicks::UNDEFINED 3753682512500                       # Cumulative time (in ticks) in various power states
system.cpu0.dcache.tags.replacements         12204471                       # number of replacements
system.cpu0.dcache.tags.tagsinuse         1017.068229                       # Cycle average of tags in use
system.cpu0.dcache.tags.total_refs          144672134                       # Total number of references to valid blocks.
system.cpu0.dcache.tags.sampled_refs         12205454                       # Sample count of references to valid blocks.
system.cpu0.dcache.tags.avg_refs            11.853073                       # Average number of references to valid blocks.
system.cpu0.dcache.tags.warmup_cycle     3237877533500                       # Cycle when the warmup percentage was hit.
system.cpu0.dcache.tags.occ_blocks::switch_cpus0.data  1017.068229                       # Average occupied blocks per requestor
system.cpu0.dcache.tags.occ_percent::switch_cpus0.data     0.993231                       # Average percentage of cache occupancy
system.cpu0.dcache.tags.occ_percent::total     0.993231                       # Average percentage of cache occupancy
system.cpu0.dcache.tags.occ_task_id_blocks::1024          983                       # Occupied blocks per task id
system.cpu0.dcache.tags.age_task_id_blocks_1024::0           32                       # Occupied blocks per task id
system.cpu0.dcache.tags.age_task_id_blocks_1024::1          496                       # Occupied blocks per task id
system.cpu0.dcache.tags.age_task_id_blocks_1024::2          347                       # Occupied blocks per task id
system.cpu0.dcache.tags.age_task_id_blocks_1024::3          102                       # Occupied blocks per task id
system.cpu0.dcache.tags.age_task_id_blocks_1024::4            6                       # Occupied blocks per task id
system.cpu0.dcache.tags.occ_task_id_percent::1024     0.959961                       # Percentage of cache occupancy per task id
system.cpu0.dcache.tags.tag_accesses        356696590                       # Number of tag accesses
system.cpu0.dcache.tags.data_accesses       356696590                       # Number of data accesses
system.cpu0.dcache.pwrStateResidencyTicks::UNDEFINED 3753682512500                       # Cumulative time (in ticks) in various power states
system.cpu0.dcache.ReadReq_hits::switch_cpus0.data     97463412                       # number of ReadReq hits
system.cpu0.dcache.ReadReq_hits::total       97463412                       # number of ReadReq hits
system.cpu0.dcache.WriteReq_hits::switch_cpus0.data     46626657                       # number of WriteReq hits
system.cpu0.dcache.WriteReq_hits::total      46626657                       # number of WriteReq hits
system.cpu0.dcache.SoftPFReq_hits::switch_cpus0.data        45647                       # number of SoftPFReq hits
system.cpu0.dcache.SoftPFReq_hits::total        45647                       # number of SoftPFReq hits
system.cpu0.dcache.LoadLockedReq_hits::switch_cpus0.data       244725                       # number of LoadLockedReq hits
system.cpu0.dcache.LoadLockedReq_hits::total       244725                       # number of LoadLockedReq hits
system.cpu0.dcache.StoreCondReq_hits::switch_cpus0.data       243344                       # number of StoreCondReq hits
system.cpu0.dcache.StoreCondReq_hits::total       243344                       # number of StoreCondReq hits
system.cpu0.dcache.demand_hits::switch_cpus0.data    144090069                       # number of demand (read+write) hits
system.cpu0.dcache.demand_hits::total       144090069                       # number of demand (read+write) hits
system.cpu0.dcache.overall_hits::switch_cpus0.data    144135716                       # number of overall hits
system.cpu0.dcache.overall_hits::total      144135716                       # number of overall hits
system.cpu0.dcache.ReadReq_misses::switch_cpus0.data     26182407                       # number of ReadReq misses
system.cpu0.dcache.ReadReq_misses::total     26182407                       # number of ReadReq misses
system.cpu0.dcache.WriteReq_misses::switch_cpus0.data      1365838                       # number of WriteReq misses
system.cpu0.dcache.WriteReq_misses::total      1365838                       # number of WriteReq misses
system.cpu0.dcache.SoftPFReq_misses::switch_cpus0.data        56222                       # number of SoftPFReq misses
system.cpu0.dcache.SoftPFReq_misses::total        56222                       # number of SoftPFReq misses
system.cpu0.dcache.LoadLockedReq_misses::switch_cpus0.data         5262                       # number of LoadLockedReq misses
system.cpu0.dcache.LoadLockedReq_misses::total         5262                       # number of LoadLockedReq misses
system.cpu0.dcache.StoreCondReq_misses::switch_cpus0.data         5386                       # number of StoreCondReq misses
system.cpu0.dcache.StoreCondReq_misses::total         5386                       # number of StoreCondReq misses
system.cpu0.dcache.demand_misses::switch_cpus0.data     27548245                       # number of demand (read+write) misses
system.cpu0.dcache.demand_misses::total      27548245                       # number of demand (read+write) misses
system.cpu0.dcache.overall_misses::switch_cpus0.data     27604467                       # number of overall misses
system.cpu0.dcache.overall_misses::total     27604467                       # number of overall misses
system.cpu0.dcache.ReadReq_miss_latency::switch_cpus0.data 1347176601500                       # number of ReadReq miss cycles
system.cpu0.dcache.ReadReq_miss_latency::total 1347176601500                       # number of ReadReq miss cycles
system.cpu0.dcache.WriteReq_miss_latency::switch_cpus0.data  31550158217                       # number of WriteReq miss cycles
system.cpu0.dcache.WriteReq_miss_latency::total  31550158217                       # number of WriteReq miss cycles
system.cpu0.dcache.LoadLockedReq_miss_latency::switch_cpus0.data    191262000                       # number of LoadLockedReq miss cycles
system.cpu0.dcache.LoadLockedReq_miss_latency::total    191262000                       # number of LoadLockedReq miss cycles
system.cpu0.dcache.StoreCondReq_miss_latency::switch_cpus0.data     34638500                       # number of StoreCondReq miss cycles
system.cpu0.dcache.StoreCondReq_miss_latency::total     34638500                       # number of StoreCondReq miss cycles
system.cpu0.dcache.StoreCondFailReq_miss_latency::switch_cpus0.data        25500                       # number of StoreCondFailReq miss cycles
system.cpu0.dcache.StoreCondFailReq_miss_latency::total        25500                       # number of StoreCondFailReq miss cycles
system.cpu0.dcache.demand_miss_latency::switch_cpus0.data 1378726759717                       # number of demand (read+write) miss cycles
system.cpu0.dcache.demand_miss_latency::total 1378726759717                       # number of demand (read+write) miss cycles
system.cpu0.dcache.overall_miss_latency::switch_cpus0.data 1378726759717                       # number of overall miss cycles
system.cpu0.dcache.overall_miss_latency::total 1378726759717                       # number of overall miss cycles
system.cpu0.dcache.ReadReq_accesses::switch_cpus0.data    123645819                       # number of ReadReq accesses(hits+misses)
system.cpu0.dcache.ReadReq_accesses::total    123645819                       # number of ReadReq accesses(hits+misses)
system.cpu0.dcache.WriteReq_accesses::switch_cpus0.data     47992495                       # number of WriteReq accesses(hits+misses)
system.cpu0.dcache.WriteReq_accesses::total     47992495                       # number of WriteReq accesses(hits+misses)
system.cpu0.dcache.SoftPFReq_accesses::switch_cpus0.data       101869                       # number of SoftPFReq accesses(hits+misses)
system.cpu0.dcache.SoftPFReq_accesses::total       101869                       # number of SoftPFReq accesses(hits+misses)
system.cpu0.dcache.LoadLockedReq_accesses::switch_cpus0.data       249987                       # number of LoadLockedReq accesses(hits+misses)
system.cpu0.dcache.LoadLockedReq_accesses::total       249987                       # number of LoadLockedReq accesses(hits+misses)
system.cpu0.dcache.StoreCondReq_accesses::switch_cpus0.data       248730                       # number of StoreCondReq accesses(hits+misses)
system.cpu0.dcache.StoreCondReq_accesses::total       248730                       # number of StoreCondReq accesses(hits+misses)
system.cpu0.dcache.demand_accesses::switch_cpus0.data    171638314                       # number of demand (read+write) accesses
system.cpu0.dcache.demand_accesses::total    171638314                       # number of demand (read+write) accesses
system.cpu0.dcache.overall_accesses::switch_cpus0.data    171740183                       # number of overall (read+write) accesses
system.cpu0.dcache.overall_accesses::total    171740183                       # number of overall (read+write) accesses
system.cpu0.dcache.ReadReq_miss_rate::switch_cpus0.data     0.211753                       # miss rate for ReadReq accesses
system.cpu0.dcache.ReadReq_miss_rate::total     0.211753                       # miss rate for ReadReq accesses
system.cpu0.dcache.WriteReq_miss_rate::switch_cpus0.data     0.028459                       # miss rate for WriteReq accesses
system.cpu0.dcache.WriteReq_miss_rate::total     0.028459                       # miss rate for WriteReq accesses
system.cpu0.dcache.SoftPFReq_miss_rate::switch_cpus0.data     0.551905                       # miss rate for SoftPFReq accesses
system.cpu0.dcache.SoftPFReq_miss_rate::total     0.551905                       # miss rate for SoftPFReq accesses
system.cpu0.dcache.LoadLockedReq_miss_rate::switch_cpus0.data     0.021049                       # miss rate for LoadLockedReq accesses
system.cpu0.dcache.LoadLockedReq_miss_rate::total     0.021049                       # miss rate for LoadLockedReq accesses
system.cpu0.dcache.StoreCondReq_miss_rate::switch_cpus0.data     0.021654                       # miss rate for StoreCondReq accesses
system.cpu0.dcache.StoreCondReq_miss_rate::total     0.021654                       # miss rate for StoreCondReq accesses
system.cpu0.dcache.demand_miss_rate::switch_cpus0.data     0.160502                       # miss rate for demand accesses
system.cpu0.dcache.demand_miss_rate::total     0.160502                       # miss rate for demand accesses
system.cpu0.dcache.overall_miss_rate::switch_cpus0.data     0.160734                       # miss rate for overall accesses
system.cpu0.dcache.overall_miss_rate::total     0.160734                       # miss rate for overall accesses
system.cpu0.dcache.ReadReq_avg_miss_latency::switch_cpus0.data 51453.504695                       # average ReadReq miss latency
system.cpu0.dcache.ReadReq_avg_miss_latency::total 51453.504695                       # average ReadReq miss latency
system.cpu0.dcache.WriteReq_avg_miss_latency::switch_cpus0.data 23099.487799                       # average WriteReq miss latency
system.cpu0.dcache.WriteReq_avg_miss_latency::total 23099.487799                       # average WriteReq miss latency
system.cpu0.dcache.LoadLockedReq_avg_miss_latency::switch_cpus0.data 36347.776511                       # average LoadLockedReq miss latency
system.cpu0.dcache.LoadLockedReq_avg_miss_latency::total 36347.776511                       # average LoadLockedReq miss latency
system.cpu0.dcache.StoreCondReq_avg_miss_latency::switch_cpus0.data  6431.210546                       # average StoreCondReq miss latency
system.cpu0.dcache.StoreCondReq_avg_miss_latency::total  6431.210546                       # average StoreCondReq miss latency
system.cpu0.dcache.StoreCondFailReq_avg_miss_latency::switch_cpus0.data          inf                       # average StoreCondFailReq miss latency
system.cpu0.dcache.StoreCondFailReq_avg_miss_latency::total          inf                       # average StoreCondFailReq miss latency
system.cpu0.dcache.demand_avg_miss_latency::switch_cpus0.data 50047.716641                       # average overall miss latency
system.cpu0.dcache.demand_avg_miss_latency::total 50047.716641                       # average overall miss latency
system.cpu0.dcache.overall_avg_miss_latency::switch_cpus0.data 49945.784489                       # average overall miss latency
system.cpu0.dcache.overall_avg_miss_latency::total 49945.784489                       # average overall miss latency
system.cpu0.dcache.blocked_cycles::no_mshrs      1125256                       # number of cycles access was blocked
system.cpu0.dcache.blocked_cycles::no_targets     35088813                       # number of cycles access was blocked
system.cpu0.dcache.blocked::no_mshrs            22323                       # number of cycles access was blocked
system.cpu0.dcache.blocked::no_targets         353776                       # number of cycles access was blocked
system.cpu0.dcache.avg_blocked_cycles::no_mshrs    50.407920                       # average number of cycles each access was blocked
system.cpu0.dcache.avg_blocked_cycles::no_targets    99.183701                       # average number of cycles each access was blocked
[...]
system.switch_cpus3.commit.op_class_0::SimdFloatCmp            5      0.00%     64.71% # Class of committed instruction
system.switch_cpus3.commit.op_class_0::SimdFloatCvt            4      0.00%     64.71% # Class of committed instruction
system.switch_cpus3.commit.op_class_0::SimdFloatDiv            0      0.00%     64.71% # Class of committed instruction
system.switch_cpus3.commit.op_class_0::SimdFloatMisc         1231      0.00%     64.71% # Class of committed instruction
system.switch_cpus3.commit.op_class_0::SimdFloatMult            2      0.00%     64.71% # Class of committed instruction
system.switch_cpus3.commit.op_class_0::SimdFloatMultAcc            0      0.00%     64.71% # Class of committed instruction
system.switch_cpus3.commit.op_class_0::SimdFloatSqrt            0      0.00%     64.71% # Class of committed instruction
system.switch_cpus3.commit.op_class_0::MemRead    226768015     17.78%     82.49% # Class of committed instruction
system.switch_cpus3.commit.op_class_0::MemWrite    223255652     17.51%    100.00% # Class of committed instruction
system.switch_cpus3.commit.op_class_0::IprAccess            0      0.00%    100.00% # Class of committed instruction
system.switch_cpus3.commit.op_class_0::InstPrefetch            0      0.00%    100.00% # Class of committed instruction
system.switch_cpus3.commit.op_class_0::total   1275226841                       # Class of committed instruction
system.switch_cpus3.commit.bw_lim_events     29064410                       # number cycles where commit BW limit reached
system.switch_cpus3.rob.rob_reads          2255600110                       # The number of ROB reads
system.switch_cpus3.rob.rob_writes         2785356309                       # The number of ROB writes
system.switch_cpus3.timesIdled                 690320                       # Number of times that the entire CPU went into an idle state and unscheduled itself
system.switch_cpus3.idleCycles               99222818                       # Total number of cycles that the CPU has spent unscheduled due to idling
system.switch_cpus3.quiesceCycles            12085880                       # Total number of cycles that CPU has spent quiesced or waiting for an interrupt
system.switch_cpus3.committedInsts         1024202989                       # Number of Instructions Simulated
system.switch_cpus3.committedOps           1275145615                       # Number of Ops (including micro ops) Simulated
system.switch_cpus3.cpi                      0.997979                       # CPI: Cycles Per Instruction
system.switch_cpus3.cpi_total                0.997979                       # CPI: Total CPI of All Threads
system.switch_cpus3.ipc                      1.002025                       # IPC: Instructions Per Cycle
system.switch_cpus3.ipc_total                1.002025                       # IPC: Total IPC of All Threads
system.switch_cpus3.int_regfile_reads      1494463766                       # number of integer regfile reads
system.switch_cpus3.int_regfile_writes      770680908                       # number of integer regfile writes
system.switch_cpus3.fp_regfile_reads             6180                       # number of floating regfile reads
system.switch_cpus3.fp_regfile_writes            4142                       # number of floating regfile writes
system.switch_cpus3.cc_regfile_reads       4671146073                       # number of cc regfile reads
system.switch_cpus3.cc_regfile_writes       734752008                       # number of cc regfile writes
system.switch_cpus3.misc_regfile_reads     2347954378                       # number of misc regfile reads
system.switch_cpus3.misc_regfile_writes       4462283                       # number of misc regfile writes
system.tol2bus.snoop_filter.tot_requests     63011461                       # Total number of requests made to the snoop filter.
system.tol2bus.snoop_filter.hit_single_requests     31206035                       # Number of requests hitting in the snoop filter with a single holder of the requested data.
system.tol2bus.snoop_filter.hit_multi_requests      1840986                       # Number of requests hitting in the snoop filter with multiple (>1) holders of the requested data.
system.tol2bus.snoop_filter.tot_snoops         133636                       # Total number of snoops made to the snoop filter.
system.tol2bus.snoop_filter.hit_single_snoops       128623                       # Number of snoops hitting in the snoop filter with a single holder of the requested data.
system.tol2bus.snoop_filter.hit_multi_snoops         5013                       # Number of snoops hitting in the snoop filter with multiple (>1) holders of the requested data.
system.tol2bus.pwrStateResidencyTicks::UNDEFINED 3753682512500                       # Cumulative time (in ticks) in various power states
system.tol2bus.trans_dist::ReadReq               4620                       # Transaction distribution
system.tol2bus.trans_dist::ReadResp          24054664                       # Transaction distribution
system.tol2bus.trans_dist::WriteReq              5540                       # Transaction distribution
system.tol2bus.trans_dist::WriteResp             5540                       # Transaction distribution
system.tol2bus.trans_dist::WritebackDirty     20645178                       # Transaction distribution
system.tol2bus.trans_dist::WritebackClean     19237318                       # Transaction distribution
system.tol2bus.trans_dist::CleanEvict         3779739                       # Transaction distribution
system.tol2bus.trans_dist::HardPFReq         10160987                       # Transaction distribution
system.tol2bus.trans_dist::HardPFResp               4                       # Transaction distribution
system.tol2bus.trans_dist::UpgradeReq          143561                       # Transaction distribution
system.tol2bus.trans_dist::SCUpgradeReq         23320                       # Transaction distribution
system.tol2bus.trans_dist::UpgradeResp         166881                       # Transaction distribution
system.tol2bus.trans_dist::SCUpgradeFailReq            4                       # Transaction distribution
system.tol2bus.trans_dist::UpgradeFailResp            4                       # Transaction distribution
system.tol2bus.trans_dist::ReadExReq          7469511                       # Transaction distribution
system.tol2bus.trans_dist::ReadExResp         7469511                       # Transaction distribution
system.tol2bus.trans_dist::ReadCleanReq      10826996                       # Transaction distribution
system.tol2bus.trans_dist::ReadSharedReq     13223060                       # Transaction distribution
system.tol2bus.trans_dist::InvalidateReq         7241                       # Transaction distribution
system.tol2bus.pkt_count_system.cpu0.icache.mem_side::system.l2.cpu_side      1126257                       # Packet count per connected master and slave (bytes)
system.tol2bus.pkt_count_system.cpu0.dcache.mem_side::system.l2.cpu_side     36659656                       # Packet count per connected master and slave (bytes)
system.tol2bus.pkt_count_system.cpu0.itb_walker_cache.mem_side::system.l2.cpu_side         3446                       # Packet count per connected master and slave (bytes)
system.tol2bus.pkt_count_system.cpu0.dtb_walker_cache.mem_side::system.l2.cpu_side      4525097                       # Packet count per connected master and slave (bytes)
system.tol2bus.pkt_count_system.cpu1.icache.mem_side::system.l2.cpu_side      2693858                       # Packet count per connected master and slave (bytes)
system.tol2bus.pkt_count_system.cpu1.dcache.mem_side::system.l2.cpu_side      1122590                       # Packet count per connected master and slave (bytes)
system.tol2bus.pkt_count_system.cpu1.itb_walker_cache.mem_side::system.l2.cpu_side        11783                       # Packet count per connected master and slave (bytes)
system.tol2bus.pkt_count_system.cpu1.dtb_walker_cache.mem_side::system.l2.cpu_side        34158                       # Packet count per connected master and slave (bytes)
system.tol2bus.pkt_count_system.cpu2.icache.mem_side::system.l2.cpu_side      5427396                       # Packet count per connected master and slave (bytes)
system.tol2bus.pkt_count_system.cpu2.dcache.mem_side::system.l2.cpu_side     23559986                       # Packet count per connected master and slave (bytes)
system.tol2bus.pkt_count_system.cpu2.itb_walker_cache.mem_side::system.l2.cpu_side         3098                       # Packet count per connected master and slave (bytes)
system.tol2bus.pkt_count_system.cpu2.dtb_walker_cache.mem_side::system.l2.cpu_side       166796                       # Packet count per connected master and slave (bytes)
system.tol2bus.pkt_count_system.cpu3.icache.mem_side::system.l2.cpu_side     18169701                       # Packet count per connected master and slave (bytes)
system.tol2bus.pkt_count_system.cpu3.dcache.mem_side::system.l2.cpu_side       935620                       # Packet count per connected master and slave (bytes)
system.tol2bus.pkt_count_system.cpu3.itb_walker_cache.mem_side::system.l2.cpu_side         8173                       # Packet count per connected master and slave (bytes)
system.tol2bus.pkt_count_system.cpu3.dtb_walker_cache.mem_side::system.l2.cpu_side        27167                       # Packet count per connected master and slave (bytes)
system.tol2bus.pkt_count::total              94474782                       # Packet count per connected master and slave (bytes)
system.tol2bus.pkt_size_system.cpu0.icache.mem_side::system.l2.cpu_side     48052864                       # Cumulative packet size per connected master and slave (bytes)
system.tol2bus.pkt_size_system.cpu0.dcache.mem_side::system.l2.cpu_side   1562027175                       # Cumulative packet size per connected master and slave (bytes)
system.tol2bus.pkt_size_system.cpu0.itb_walker_cache.mem_side::system.l2.cpu_side        88320                       # Cumulative packet size per connected master and slave (bytes)
system.tol2bus.pkt_size_system.cpu0.dtb_walker_cache.mem_side::system.l2.cpu_side    192923520                       # Cumulative packet size per connected master and slave (bytes)
system.tol2bus.pkt_size_system.cpu1.icache.mem_side::system.l2.cpu_side    114937088                       # Cumulative packet size per connected master and slave (bytes)
system.tol2bus.pkt_size_system.cpu1.dcache.mem_side::system.l2.cpu_side     46285635                       # Cumulative packet size per connected master and slave (bytes)
system.tol2bus.pkt_size_system.cpu1.itb_walker_cache.mem_side::system.l2.cpu_side       404864                       # Cumulative packet size per connected master and slave (bytes)
system.tol2bus.pkt_size_system.cpu1.dtb_walker_cache.mem_side::system.l2.cpu_side      1277696                       # Cumulative packet size per connected master and slave (bytes)
system.tol2bus.pkt_size_system.cpu2.icache.mem_side::system.l2.cpu_side    231568384                       # Cumulative packet size per connected master and slave (bytes)
system.tol2bus.pkt_size_system.cpu2.dcache.mem_side::system.l2.cpu_side    994515410                       # Cumulative packet size per connected master and slave (bytes)
system.tol2bus.pkt_size_system.cpu2.itb_walker_cache.mem_side::system.l2.cpu_side        76288                       # Cumulative packet size per connected master and slave (bytes)
system.tol2bus.pkt_size_system.cpu2.dtb_walker_cache.mem_side::system.l2.cpu_side      1956288                       # Cumulative packet size per connected master and slave (bytes)
system.tol2bus.pkt_size_system.cpu3.icache.mem_side::system.l2.cpu_side    775239936                       # Cumulative packet size per connected master and slave (bytes)
system.tol2bus.pkt_size_system.cpu3.dcache.mem_side::system.l2.cpu_side     38186704                       # Cumulative packet size per connected master and slave (bytes)
system.tol2bus.pkt_size_system.cpu3.itb_walker_cache.mem_side::system.l2.cpu_side       215296                       # Cumulative packet size per connected master and slave (bytes)
system.tol2bus.pkt_size_system.cpu3.dtb_walker_cache.mem_side::system.l2.cpu_side       935232                       # Cumulative packet size per connected master and slave (bytes)
system.tol2bus.pkt_size::total             4008690700                       # Cumulative packet size per connected master and slave (bytes)
system.tol2bus.snoops                        22749902                       # Total snoops (count)
system.tol2bus.snoopTraffic                 561125632                       # Total snoop traffic (bytes)
system.tol2bus.snoop_fanout::samples         54206454                       # Request fanout histogram
system.tol2bus.snoop_fanout::mean            0.042007                       # Request fanout histogram
system.tol2bus.snoop_fanout::stdev           0.245507                       # Request fanout histogram
system.tol2bus.snoop_fanout::underflows             0      0.00%      0.00% # Request fanout histogram
system.tol2bus.snoop_fanout::0               52352793     96.58%     96.58% # Request fanout histogram
system.tol2bus.snoop_fanout::1                1527175      2.82%     99.40% # Request fanout histogram
system.tol2bus.snoop_fanout::2                 244002      0.45%     99.85% # Request fanout histogram
system.tol2bus.snoop_fanout::3                  73999      0.14%     99.98% # Request fanout histogram
system.tol2bus.snoop_fanout::4                   4383      0.01%     99.99% # Request fanout histogram
system.tol2bus.snoop_fanout::5                   2646      0.00%    100.00% # Request fanout histogram
system.tol2bus.snoop_fanout::6                   1071      0.00%    100.00% # Request fanout histogram
system.tol2bus.snoop_fanout::7                    385      0.00%    100.00% # Request fanout histogram
system.tol2bus.snoop_fanout::8                      0      0.00%    100.00% # Request fanout histogram
system.tol2bus.snoop_fanout::9                      0      0.00%    100.00% # Request fanout histogram
system.tol2bus.snoop_fanout::10                     0      0.00%    100.00% # Request fanout histogram
system.tol2bus.snoop_fanout::11                     0      0.00%    100.00% # Request fanout histogram
system.tol2bus.snoop_fanout::12                     0      0.00%    100.00% # Request fanout histogram
system.tol2bus.snoop_fanout::13                     0      0.00%    100.00% # Request fanout histogram
system.tol2bus.snoop_fanout::14                     0      0.00%    100.00% # Request fanout histogram
system.tol2bus.snoop_fanout::15                     0      0.00%    100.00% # Request fanout histogram
system.tol2bus.snoop_fanout::16                     0      0.00%    100.00% # Request fanout histogram
system.tol2bus.snoop_fanout::overflows              0      0.00%    100.00% # Request fanout histogram
system.tol2bus.snoop_fanout::min_value              0                       # Request fanout histogram
system.tol2bus.snoop_fanout::max_value              7                       # Request fanout histogram
system.tol2bus.snoop_fanout::total           54206454                       # Request fanout histogram
system.tol2bus.reqLayer0.occupancy        62837812206                       # Layer occupancy (ticks)
system.tol2bus.reqLayer0.utilization             12.2                       # Layer utilization (%)
system.tol2bus.snoopLayer0.occupancy          1602080                       # Layer occupancy (ticks)
system.tol2bus.snoopLayer0.utilization            0.0                       # Layer utilization (%)
system.tol2bus.respLayer0.occupancy         565715809                       # Layer occupancy (ticks)
system.tol2bus.respLayer0.utilization             0.1                       # Layer utilization (%)
system.tol2bus.respLayer1.occupancy       18389088983                       # Layer occupancy (ticks)
system.tol2bus.respLayer1.utilization             3.6                       # Layer utilization (%)
system.tol2bus.respLayer2.occupancy           3105487                       # Layer occupancy (ticks)
system.tol2bus.respLayer2.utilization             0.0                       # Layer utilization (%)
system.tol2bus.respLayer3.occupancy        2267627710                       # Layer occupancy (ticks)
system.tol2bus.respLayer3.utilization             0.4                       # Layer utilization (%)
system.tol2bus.respLayer4.occupancy        1351425495                       # Layer occupancy (ticks)
system.tol2bus.respLayer4.utilization             0.3                       # Layer utilization (%)
system.tol2bus.respLayer5.occupancy         576499361                       # Layer occupancy (ticks)
system.tol2bus.respLayer5.utilization             0.1                       # Layer utilization (%)
system.tol2bus.respLayer6.occupancy           8224919                       # Layer occupancy (ticks)
system.tol2bus.respLayer6.utilization             0.0                       # Layer utilization (%)
system.tol2bus.respLayer7.occupancy          21385808                       # Layer occupancy (ticks)
system.tol2bus.respLayer7.utilization             0.0                       # Layer utilization (%)
system.tol2bus.respLayer8.occupancy        2719860658                       # Layer occupancy (ticks)
system.tol2bus.respLayer8.utilization             0.5                       # Layer utilization (%)
system.tol2bus.respLayer9.occupancy       11755470226                       # Layer occupancy (ticks)
system.tol2bus.respLayer9.utilization             2.3                       # Layer utilization (%)
system.tol2bus.respLayer10.occupancy          2864988                       # Layer occupancy (ticks)
system.tol2bus.respLayer10.utilization            0.0                       # Layer utilization (%)
system.tol2bus.respLayer11.occupancy        204468748                       # Layer occupancy (ticks)
system.tol2bus.respLayer11.utilization            0.0                       # Layer utilization (%)
system.tol2bus.respLayer12.occupancy       9095617800                       # Layer occupancy (ticks)
system.tol2bus.respLayer12.utilization            1.8                       # Layer utilization (%)
system.tol2bus.respLayer13.occupancy        482621863                       # Layer occupancy (ticks)
system.tol2bus.respLayer13.utilization            0.1                       # Layer utilization (%)
system.tol2bus.respLayer14.occupancy          7226973                       # Layer occupancy (ticks)
system.tol2bus.respLayer14.utilization            0.0                       # Layer utilization (%)
system.tol2bus.respLayer15.occupancy         18873915                       # Layer occupancy (ticks)
system.tol2bus.respLayer15.utilization            0.0                       # Layer utilization (%)
system.switch_cpus0.kern.inst.arm                   0                       # number of arm instructions executed
system.switch_cpus0.kern.inst.quiesce               0                       # number of quiesce instructions executed
system.switch_cpus1.kern.inst.arm                   0                       # number of arm instructions executed
system.switch_cpus1.kern.inst.quiesce               0                       # number of quiesce instructions executed
system.switch_cpus2.kern.inst.arm                   0                       # number of arm instructions executed
system.switch_cpus2.kern.inst.quiesce               0                       # number of quiesce instructions executed
system.switch_cpus3.kern.inst.arm                   0                       # number of arm instructions executed
system.switch_cpus3.kern.inst.quiesce               0                       # number of quiesce instructions executed

---------- End Simulation Statistics   ----------
