
---------- Begin Simulation Statistics ----------
sim_seconds                                  0.504283                       # Number of seconds simulated
sim_ticks                                504282655500                       # Number of ticks simulated
final_tick                               3740846744500                       # Number of ticks from beginning of simulation (restored from checkpoints and never reset)
sim_freq                                 1000000000000                       # Frequency of simulated ticks
host_inst_rate                                 107525                       # Simulator instruction rate (inst/s)
host_op_rate                                   128423                       # Simulator op (including micro ops) rate (op/s)
host_tick_rate                               17698337                       # Simulator tick rate (ticks/s)
host_mem_usage                                2640140                       # Number of bytes of host memory used
host_seconds                                 28493.22                       # Real time elapsed on the host
sim_insts                                  3063728869                       # Number of instructions simulated
sim_ops                                    3659171197                       # Number of ops (including micro ops) simulated
system.voltage_domain.voltage                       1                       # Voltage in Volts
system.clk_domain.clock                          1000                       # Clock period in ticks
system.mem_ctrls.pwrStateResidencyTicks::UNDEFINED 3740846744500                       # Cumulative time (in ticks) in various power states
system.mem_ctrls.bytes_read::l2.prefetcher    462892416                       # Number of bytes read from this memory
system.mem_ctrls.bytes_read::switch_cpus0.dtb.walker      5382400                       # Number of bytes read from this memory
system.mem_ctrls.bytes_read::switch_cpus0.itb.walker        26176                       # Number of bytes read from this memory
system.mem_ctrls.bytes_read::switch_cpus0.inst     21201024                       # Number of bytes read from this memory
system.mem_ctrls.bytes_read::switch_cpus0.data    233805120                       # Number of bytes read from this memory
system.mem_ctrls.bytes_read::switch_cpus1.dtb.walker       229376                       # Number of bytes read from this memory
system.mem_ctrls.bytes_read::switch_cpus1.itb.walker        88000                       # Number of bytes read from this memory
system.mem_ctrls.bytes_read::switch_cpus1.inst     14861952                       # Number of bytes read from this memory
system.mem_ctrls.bytes_read::switch_cpus1.data      5254464                       # Number of bytes read from this memory
system.mem_ctrls.bytes_read::switch_cpus2.dtb.walker       470848                       # Number of bytes read from this memory
system.mem_ctrls.bytes_read::switch_cpus2.itb.walker        25536                       # Number of bytes read from this memory
system.mem_ctrls.bytes_read::switch_cpus2.inst     25226240                       # Number of bytes read from this memory
system.mem_ctrls.bytes_read::switch_cpus2.data     50483648                       # Number of bytes read from this memory
system.mem_ctrls.bytes_read::switch_cpus3.dtb.walker       159360                       # Number of bytes read from this memory
system.mem_ctrls.bytes_read::switch_cpus3.itb.walker        41408                       # Number of bytes read from this memory
system.mem_ctrls.bytes_read::switch_cpus3.inst     34972096                       # Number of bytes read from this memory
system.mem_ctrls.bytes_read::switch_cpus3.data      4508224                       # Number of bytes read from this memory
system.mem_ctrls.bytes_read::total          859628288                       # Number of bytes read from this memory
system.mem_ctrls.bytes_inst_read::switch_cpus0.inst     21201024                       # Number of instructions bytes read from this memory
system.mem_ctrls.bytes_inst_read::switch_cpus1.inst     14861952                       # Number of instructions bytes read from this memory
system.mem_ctrls.bytes_inst_read::switch_cpus2.inst     25226240                       # Number of instructions bytes read from this memory
system.mem_ctrls.bytes_inst_read::switch_cpus3.inst     34972096                       # Number of instructions bytes read from this memory
system.mem_ctrls.bytes_inst_read::total      96261312                       # Number of instructions bytes read from this memory
system.mem_ctrls.bytes_written::writebacks    549032320                       # Number of bytes written to this memory
system.mem_ctrls.bytes_written::total       549032320                       # Number of bytes written to this memory
system.mem_ctrls.num_reads::l2.prefetcher      7232694                       # Number of read requests responded to by this memory
system.mem_ctrls.num_reads::switch_cpus0.dtb.walker        84100                       # Number of read requests responded to by this memory
system.mem_ctrls.num_reads::switch_cpus0.itb.walker          409                       # Number of read requests responded to by this memory
system.mem_ctrls.num_reads::switch_cpus0.inst       331266                       # Number of read requests responded to by this memory
system.mem_ctrls.num_reads::switch_cpus0.data      3653205                       # Number of read requests responded to by this memory
system.mem_ctrls.num_reads::switch_cpus1.dtb.walker         3584                       # Number of read requests responded to by this memory
system.mem_ctrls.num_reads::switch_cpus1.itb.walker         1375                       # Number of read requests responded to by this memory
system.mem_ctrls.num_reads::switch_cpus1.inst       232218                       # Number of read requests responded to by this memory
system.mem_ctrls.num_reads::switch_cpus1.data        82101                       # Number of read requests responded to by this memory
system.mem_ctrls.num_reads::switch_cpus2.dtb.walker         7357                       # Number of read requests responded to by this memory
system.mem_ctrls.num_reads::switch_cpus2.itb.walker          399                       # Number of read requests responded to by this memory
system.mem_ctrls.num_reads::switch_cpus2.inst       394160                       # Number of read requests responded to by this memory
system.mem_ctrls.num_reads::switch_cpus2.data       788807                       # Number of read requests responded to by this memory
system.mem_ctrls.num_reads::switch_cpus3.dtb.walker         2490                       # Number of read requests responded to by this memory
system.mem_ctrls.num_reads::switch_cpus3.itb.walker          647                       # Number of read requests responded to by this memory
system.mem_ctrls.num_reads::switch_cpus3.inst       546439                       # Number of read requests responded to by this memory
system.mem_ctrls.num_reads::switch_cpus3.data        70441                       # Number of read requests responded to by this memory
system.mem_ctrls.num_reads::total            13431692                       # Number of read requests responded to by this memory
system.mem_ctrls.num_writes::writebacks       8578630                       # Number of write requests responded to by this memory
system.mem_ctrls.num_writes::total            8578630                       # Number of write requests responded to by this memory
system.mem_ctrls.bw_read::l2.prefetcher     917922540                       # Total read bandwidth from this memory (bytes/s)
system.mem_ctrls.bw_read::switch_cpus0.dtb.walker     10673379                       # Total read bandwidth from this memory (bytes/s)
system.mem_ctrls.bw_read::switch_cpus0.itb.walker        51907                       # Total read bandwidth from this memory (bytes/s)
system.mem_ctrls.bw_read::switch_cpus0.inst     42041946                       # Total read bandwidth from this memory (bytes/s)
system.mem_ctrls.bw_read::switch_cpus0.data    463639028                       # Total read bandwidth from this memory (bytes/s)
system.mem_ctrls.bw_read::switch_cpus1.dtb.walker       454856                       # Total read bandwidth from this memory (bytes/s)
system.mem_ctrls.bw_read::switch_cpus1.itb.walker       174505                       # Total read bandwidth from this memory (bytes/s)
system.mem_ctrls.bw_read::switch_cpus1.inst     29471472                       # Total read bandwidth from this memory (bytes/s)
system.mem_ctrls.bw_read::switch_cpus1.data     10419680                       # Total read bandwidth from this memory (bytes/s)
system.mem_ctrls.bw_read::switch_cpus2.dtb.walker       933699                       # Total read bandwidth from this memory (bytes/s)
system.mem_ctrls.bw_read::switch_cpus2.itb.walker        50638                       # Total read bandwidth from this memory (bytes/s)
system.mem_ctrls.bw_read::switch_cpus2.inst     50024009                       # Total read bandwidth from this memory (bytes/s)
system.mem_ctrls.bw_read::switch_cpus2.data    100109824                       # Total read bandwidth from this memory (bytes/s)
system.mem_ctrls.bw_read::switch_cpus3.dtb.walker       316013                       # Total read bandwidth from this memory (bytes/s)
system.mem_ctrls.bw_read::switch_cpus3.itb.walker        82113                       # Total read bandwidth from this memory (bytes/s)
system.mem_ctrls.bw_read::switch_cpus3.inst     69350186                       # Total read bandwidth from this memory (bytes/s)
system.mem_ctrls.bw_read::switch_cpus3.data      8939875                       # Total read bandwidth from this memory (bytes/s)
system.mem_ctrls.bw_read::total            1704655670                       # Total read bandwidth from this memory (bytes/s)
system.mem_ctrls.bw_inst_read::switch_cpus0.inst     42041946                       # Instruction read bandwidth from this memory (bytes/s)
system.mem_ctrls.bw_inst_read::switch_cpus1.inst     29471472                       # Instruction read bandwidth from this memory (bytes/s)
system.mem_ctrls.bw_inst_read::switch_cpus2.inst     50024009                       # Instruction read bandwidth from this memory (bytes/s)
system.mem_ctrls.bw_inst_read::switch_cpus3.inst     69350186                       # Instruction read bandwidth from this memory (bytes/s)
system.mem_ctrls.bw_inst_read::total        190887612                       # Instruction read bandwidth from this memory (bytes/s)
system.mem_ctrls.bw_write::writebacks      1088739250                       # Write bandwidth from this memory (bytes/s)
system.mem_ctrls.bw_write::total           1088739250                       # Write bandwidth from this memory (bytes/s)
system.mem_ctrls.bw_total::writebacks      1088739250                       # Total bandwidth to/from this memory (bytes/s)
system.mem_ctrls.bw_total::l2.prefetcher    917922540                       # Total bandwidth to/from this memory (bytes/s)
system.mem_ctrls.bw_total::switch_cpus0.dtb.walker     10673379                       # Total bandwidth to/from this memory (bytes/s)
system.mem_ctrls.bw_total::switch_cpus0.itb.walker        51907                       # Total bandwidth to/from this memory (bytes/s)
system.mem_ctrls.bw_total::switch_cpus0.inst     42041946                       # Total bandwidth to/from this memory (bytes/s)
system.mem_ctrls.bw_total::switch_cpus0.data    463639028                       # Total bandwidth to/from this memory (bytes/s)
system.mem_ctrls.bw_total::switch_cpus1.dtb.walker       454856                       # Total bandwidth to/from this memory (bytes/s)
system.mem_ctrls.bw_total::switch_cpus1.itb.walker       174505                       # Total bandwidth to/from this memory (bytes/s)
system.mem_ctrls.bw_total::switch_cpus1.inst     29471472                       # Total bandwidth to/from this memory (bytes/s)
system.mem_ctrls.bw_total::switch_cpus1.data     10419680                       # Total bandwidth to/from this memory (bytes/s)
system.mem_ctrls.bw_total::switch_cpus2.dtb.walker       933699                       # Total bandwidth to/from this memory (bytes/s)
system.mem_ctrls.bw_total::switch_cpus2.itb.walker        50638                       # Total bandwidth to/from this memory (bytes/s)
system.mem_ctrls.bw_total::switch_cpus2.inst     50024009                       # Total bandwidth to/from this memory (bytes/s)
system.mem_ctrls.bw_total::switch_cpus2.data    100109824                       # Total bandwidth to/from this memory (bytes/s)
system.mem_ctrls.bw_total::switch_cpus3.dtb.walker       316013                       # Total bandwidth to/from this memory (bytes/s)
system.mem_ctrls.bw_total::switch_cpus3.itb.walker        82113                       # Total bandwidth to/from this memory (bytes/s)
system.mem_ctrls.bw_total::switch_cpus3.inst     69350186                       # Total bandwidth to/from this memory (bytes/s)
system.mem_ctrls.bw_total::switch_cpus3.data      8939875                       # Total bandwidth to/from this memory (bytes/s)
system.mem_ctrls.bw_total::total           2793394920                       # Total bandwidth to/from this memory (bytes/s)
system.mem_ctrls.readReqs                    13431692                       # Number of read requests accepted
system.mem_ctrls.writeReqs                    8578630                       # Number of write requests accepted
system.mem_ctrls.readBursts                  13431692                       # Number of DRAM read bursts, including those serviced by the write queue
system.mem_ctrls.writeBursts                  8578630                       # Number of DRAM write bursts, including those merged in the write queue
system.mem_ctrls.bytesReadDRAM              859249920                       # Total number of bytes read from DRAM
system.mem_ctrls.bytesReadWrQ                  378368                       # Total number of bytes read from write queue
system.mem_ctrls.bytesWritten               549030976                       # Total number of bytes written to DRAM
system.mem_ctrls.bytesReadSys               859628288                       # Total read bytes from the system interface side
system.mem_ctrls.bytesWrittenSys            549032320                       # Total written bytes from the system interface side
system.mem_ctrls.servicedByWrQ                   5912                       # Number of DRAM read bursts serviced by the write queue
system.mem_ctrls.mergedWrBursts                     4                       # Number of DRAM write bursts merged with an existing one
system.mem_ctrls.neitherReadNorWriteReqs            0                       # Number of requests that are neither read nor write
system.mem_ctrls.perBankRdBursts::0            822925                       # Per bank write bursts
system.mem_ctrls.perBankRdBursts::1            929168                       # Per bank write bursts
system.mem_ctrls.perBankRdBursts::2            852570                       # Per bank write bursts
system.mem_ctrls.perBankRdBursts::3            753546                       # Per bank write bursts
system.mem_ctrls.perBankRdBursts::4            766530                       # Per bank write bursts
system.mem_ctrls.perBankRdBursts::5            782808                       # Per bank write bursts
system.mem_ctrls.perBankRdBursts::6            803971                       # Per bank write bursts
system.mem_ctrls.perBankRdBursts::7            823295                       # Per bank write bursts
system.mem_ctrls.perBankRdBursts::8            979764                       # Per bank write bursts
system.mem_ctrls.perBankRdBursts::9            759750                       # Per bank write bursts
system.mem_ctrls.perBankRdBursts::10           766107                       # Per bank write bursts
system.mem_ctrls.perBankRdBursts::11           974720                       # Per bank write bursts
system.mem_ctrls.perBankRdBursts::12           785216                       # Per bank write bursts
system.mem_ctrls.perBankRdBursts::13           823978                       # Per bank write bursts
system.mem_ctrls.perBankRdBursts::14           833902                       # Per bank write bursts
system.mem_ctrls.perBankRdBursts::15           967530                       # Per bank write bursts
system.mem_ctrls.perBankWrBursts::0            539402                       # Per bank write bursts
system.mem_ctrls.perBankWrBursts::1            545125                       # Per bank write bursts
system.mem_ctrls.perBankWrBursts::2            546922                       # Per bank write bursts
system.mem_ctrls.perBankWrBursts::3            525623                       # Per bank write bursts
system.mem_ctrls.perBankWrBursts::4            532344                       # Per bank write bursts
system.mem_ctrls.perBankWrBursts::5            524879                       # Per bank write bursts
system.mem_ctrls.perBankWrBursts::6            545520                       # Per bank write bursts
system.mem_ctrls.perBankWrBursts::7            547456                       # Per bank write bursts
system.mem_ctrls.perBankWrBursts::8            527901                       # Per bank write bursts
system.mem_ctrls.perBankWrBursts::9            524526                       # Per bank write bursts
system.mem_ctrls.perBankWrBursts::10           535903                       # Per bank write bursts
system.mem_ctrls.perBankWrBursts::11           534593                       # Per bank write bursts
system.mem_ctrls.perBankWrBursts::12           543725                       # Per bank write bursts
system.mem_ctrls.perBankWrBursts::13           534263                       # Per bank write bursts
system.mem_ctrls.perBankWrBursts::14           525093                       # Per bank write bursts
system.mem_ctrls.perBankWrBursts::15           545334                       # Per bank write bursts
system.mem_ctrls.numRdRetry                         0                       # Number of times read queue was full causing retry
system.mem_ctrls.numWrRetry                      1358                       # Number of times write queue was full causing retry
system.mem_ctrls.totGap                  504282544000                       # Total gap between requests
system.mem_ctrls.readPktSize::0                     0                       # Read request sizes (log2)
system.mem_ctrls.readPktSize::1                     0                       # Read request sizes (log2)
system.mem_ctrls.readPktSize::2                     0                       # Read request sizes (log2)
system.mem_ctrls.readPktSize::3                     0                       # Read request sizes (log2)
system.mem_ctrls.readPktSize::4                     0                       # Read request sizes (log2)
system.mem_ctrls.readPktSize::5                     0                       # Read request sizes (log2)
system.mem_ctrls.readPktSize::6              13431692                       # Read request sizes (log2)
system.mem_ctrls.writePktSize::0                    0                       # Write request sizes (log2)
system.mem_ctrls.writePktSize::1                    0                       # Write request sizes (log2)
system.mem_ctrls.writePktSize::2                    0                       # Write request sizes (log2)
system.mem_ctrls.writePktSize::3                    0                       # Write request sizes (log2)
system.mem_ctrls.writePktSize::4                    0                       # Write request sizes (log2)
system.mem_ctrls.writePktSize::5                    0                       # Write request sizes (log2)
system.mem_ctrls.writePktSize::6              8578630                       # Write request sizes (log2)
system.mem_ctrls.rdQLenPdf::0                 2838130                       # What read queue length does an incoming req see
system.mem_ctrls.rdQLenPdf::1                 3371106                       # What read queue length does an incoming req see
system.mem_ctrls.rdQLenPdf::2                 1682173                       # What read queue length does an incoming req see
system.mem_ctrls.rdQLenPdf::3                 1221048                       # What read queue length does an incoming req see
system.mem_ctrls.rdQLenPdf::4                  990389                       # What read queue length does an incoming req see
system.mem_ctrls.rdQLenPdf::5                  782986                       # What read queue length does an incoming req see
system.mem_ctrls.rdQLenPdf::6                  646800                       # What read queue length does an incoming req see
system.mem_ctrls.rdQLenPdf::7                  593385                       # What read queue length does an incoming req see
system.mem_ctrls.rdQLenPdf::8                  519172                       # What read queue length does an incoming req see
system.mem_ctrls.rdQLenPdf::9                  398817                       # What read queue length does an incoming req see
system.mem_ctrls.rdQLenPdf::10                 231749                       # What read queue length does an incoming req see
system.mem_ctrls.rdQLenPdf::11                  93127                       # What read queue length does an incoming req see
system.mem_ctrls.rdQLenPdf::12                  34608                       # What read queue length does an incoming req see
system.mem_ctrls.rdQLenPdf::13                  18459                       # What read queue length does an incoming req see
system.mem_ctrls.rdQLenPdf::14                   3129                       # What read queue length does an incoming req see
system.mem_ctrls.rdQLenPdf::15                    702                       # What read queue length does an incoming req see
system.mem_ctrls.rdQLenPdf::16                      0                       # What read queue length does an incoming req see
system.mem_ctrls.rdQLenPdf::17                      0                       # What read queue length does an incoming req see
system.mem_ctrls.rdQLenPdf::18                      0                       # What read queue length does an incoming req see
system.mem_ctrls.rdQLenPdf::19                      0                       # What read queue length does an incoming req see
system.mem_ctrls.rdQLenPdf::20                      0                       # What read queue length does an incoming req see
system.mem_ctrls.rdQLenPdf::21                      0                       # What read queue length does an incoming req see
system.mem_ctrls.rdQLenPdf::22                      0                       # What read queue length does an incoming req see
system.mem_ctrls.rdQLenPdf::23                      0                       # What read queue length does an incoming req see
system.mem_ctrls.rdQLenPdf::24                      0                       # What read queue length does an incoming req see
system.mem_ctrls.rdQLenPdf::25                      0                       # What read queue length does an incoming req see
system.mem_ctrls.rdQLenPdf::26                      0                       # What read queue length does an incoming req see
system.mem_ctrls.rdQLenPdf::27                      0                       # What read queue length does an incoming req see
system.mem_ctrls.rdQLenPdf::28                      0                       # What read queue length does an incoming req see
system.mem_ctrls.rdQLenPdf::29                      0                       # What read queue length does an incoming req see
system.mem_ctrls.rdQLenPdf::30                      0                       # What read queue length does an incoming req see
system.mem_ctrls.rdQLenPdf::31                      0                       # What read queue length does an incoming req see
system.mem_ctrls.wrQLenPdf::0                       1                       # What write queue length does an incoming req see
system.mem_ctrls.wrQLenPdf::1                       1                       # What write queue length does an incoming req see
system.mem_ctrls.wrQLenPdf::2                       1                       # What write queue length does an incoming req see
system.mem_ctrls.wrQLenPdf::3                       1                       # What write queue length does an incoming req see
system.mem_ctrls.wrQLenPdf::4                       1                       # What write queue length does an incoming req see
system.mem_ctrls.wrQLenPdf::5                       1                       # What write queue length does an incoming req see
system.mem_ctrls.wrQLenPdf::6                       1                       # What write queue length does an incoming req see
system.mem_ctrls.wrQLenPdf::7                       1                       # What write queue length does an incoming req see
system.mem_ctrls.wrQLenPdf::8                       1                       # What write queue length does an incoming req see
system.mem_ctrls.wrQLenPdf::9                       1                       # What write queue length does an incoming req see
system.mem_ctrls.wrQLenPdf::10                      1                       # What write queue length does an incoming req see
system.mem_ctrls.wrQLenPdf::11                      1                       # What write queue length does an incoming req see
system.mem_ctrls.wrQLenPdf::12                      1                       # What write queue length does an incoming req see
system.mem_ctrls.wrQLenPdf::13                      1                       # What write queue length does an incoming req see
system.mem_ctrls.wrQLenPdf::14                      1                       # What write queue length does an incoming req see
system.mem_ctrls.wrQLenPdf::15                  11392                       # What write queue length does an incoming req see
system.mem_ctrls.wrQLenPdf::16                  14410                       # What write queue length does an incoming req see
system.mem_ctrls.wrQLenPdf::17                  74380                       # What write queue length does an incoming req see
system.mem_ctrls.wrQLenPdf::18                 129616                       # What write queue length does an incoming req see
system.mem_ctrls.wrQLenPdf::19                 177728                       # What write queue length does an incoming req see
system.mem_ctrls.wrQLenPdf::20                 235161                       # What write queue length does an incoming req see
system.mem_ctrls.wrQLenPdf::21                 320528                       # What write queue length does an incoming req see
system.mem_ctrls.wrQLenPdf::22                 389178                       # What write queue length does an incoming req see
system.mem_ctrls.wrQLenPdf::23                 447723                       # What write queue length does an incoming req see
system.mem_ctrls.wrQLenPdf::24                 500119                       # What write queue length does an incoming req see
system.mem_ctrls.wrQLenPdf::25                 548312                       # What write queue length does an incoming req see
system.mem_ctrls.wrQLenPdf::26                 598106                       # What write queue length does an incoming req see
system.mem_ctrls.wrQLenPdf::27                 648226                       # What write queue length does an incoming req see
system.mem_ctrls.wrQLenPdf::28                 708070                       # What write queue length does an incoming req see
system.mem_ctrls.wrQLenPdf::29                 790844                       # What write queue length does an incoming req see
system.mem_ctrls.wrQLenPdf::30                 821994                       # What write queue length does an incoming req see
system.mem_ctrls.wrQLenPdf::31                 812589                       # What write queue length does an incoming req see
system.mem_ctrls.wrQLenPdf::32                 724638                       # What write queue length does an incoming req see
system.mem_ctrls.wrQLenPdf::33                 154773                       # What write queue length does an incoming req see
system.mem_ctrls.wrQLenPdf::34                  98301                       # What write queue length does an incoming req see
system.mem_ctrls.wrQLenPdf::35                  65257                       # What write queue length does an incoming req see
system.mem_ctrls.wrQLenPdf::36                  46293                       # What write queue length does an incoming req see
system.mem_ctrls.wrQLenPdf::37                  34105                       # What write queue length does an incoming req see
system.mem_ctrls.wrQLenPdf::38                  26314                       # What write queue length does an incoming req see
system.mem_ctrls.wrQLenPdf::39                  20741                       # What write queue length does an incoming req see
system.mem_ctrls.wrQLenPdf::40                  16533                       # What write queue length does an incoming req see
system.mem_ctrls.wrQLenPdf::41                  14195                       # What write queue length does an incoming req see
system.mem_ctrls.wrQLenPdf::42                  12602                       # What write queue length does an incoming req see
system.mem_ctrls.wrQLenPdf::43                  11025                       # What write queue length does an incoming req see
system.mem_ctrls.wrQLenPdf::44                   9958                       # What write queue length does an incoming req see
system.mem_ctrls.wrQLenPdf::45                   9506                       # What write queue length does an incoming req see
system.mem_ctrls.wrQLenPdf::46                   8947                       # What write queue length does an incoming req see
system.mem_ctrls.wrQLenPdf::47                   8340                       # What write queue length does an incoming req see
system.mem_ctrls.wrQLenPdf::48                   8017                       # What write queue length does an incoming req see
system.mem_ctrls.wrQLenPdf::49                   7577                       # What write queue length does an incoming req see
system.mem_ctrls.wrQLenPdf::50                   7252                       # What write queue length does an incoming req see
system.mem_ctrls.wrQLenPdf::51                   7316                       # What write queue length does an incoming req see
system.mem_ctrls.wrQLenPdf::52                   7371                       # What write queue length does an incoming req see
system.mem_ctrls.wrQLenPdf::53                   7270                       # What write queue length does an incoming req see
system.mem_ctrls.wrQLenPdf::54                   7407                       # What write queue length does an incoming req see
system.mem_ctrls.wrQLenPdf::55                   7608                       # What write queue length does an incoming req see
system.mem_ctrls.wrQLenPdf::56                   5544                       # What write queue length does an incoming req see
system.mem_ctrls.wrQLenPdf::57                   4508                       # What write queue length does an incoming req see
system.mem_ctrls.wrQLenPdf::58                   3891                       # What write queue length does an incoming req see
system.mem_ctrls.wrQLenPdf::59                   3350                       # What write queue length does an incoming req see
system.mem_ctrls.wrQLenPdf::60                   2684                       # What write queue length does an incoming req see
system.mem_ctrls.wrQLenPdf::61                   2438                       # What write queue length does an incoming req see
system.mem_ctrls.wrQLenPdf::62                   2272                       # What write queue length does an incoming req see
system.mem_ctrls.wrQLenPdf::63                   4202                       # What write queue length does an incoming req see
system.mem_ctrls.bytesPerActivate::samples     10718424                       # Bytes accessed per row activation
system.mem_ctrls.bytesPerActivate::mean    131.388695                       # Bytes accessed per row activation
system.mem_ctrls.bytesPerActivate::gmean    90.632613                       # Bytes accessed per row activation
system.mem_ctrls.bytesPerActivate::stdev   180.638654                       # Bytes accessed per row activation
system.mem_ctrls.bytesPerActivate::0-127      7923791     73.93%     73.93% # Bytes accessed per row activation
system.mem_ctrls.bytesPerActivate::128-255      1595749     14.89%     88.81% # Bytes accessed per row activation
system.mem_ctrls.bytesPerActivate::256-383       416849      3.89%     92.70% # Bytes accessed per row activation
system.mem_ctrls.bytesPerActivate::384-511       180471      1.68%     94.39% # Bytes accessed per row activation
system.mem_ctrls.bytesPerActivate::512-639       190524      1.78%     96.17% # Bytes accessed per row activation
system.mem_ctrls.bytesPerActivate::640-767        87539      0.82%     96.98% # Bytes accessed per row activation
system.mem_ctrls.bytesPerActivate::768-895        54216      0.51%     97.49% # Bytes accessed per row activation
system.mem_ctrls.bytesPerActivate::896-1023        63644      0.59%     98.08% # Bytes accessed per row activation
system.mem_ctrls.bytesPerActivate::1024-1151       205641      1.92%    100.00% # Bytes accessed per row activation
system.mem_ctrls.bytesPerActivate::total     10718424                       # Bytes accessed per row activation
system.mem_ctrls.rdPerTurnAround::samples       532341                       # Reads before turning the bus around for writes
system.mem_ctrls.rdPerTurnAround::mean      25.259875                       # Reads before turning the bus around for writes
system.mem_ctrls.rdPerTurnAround::stdev     42.491895                       # Reads before turning the bus around for writes
system.mem_ctrls.rdPerTurnAround::0-1023       532332    100.00%    100.00% # Reads before turning the bus around for writes
system.mem_ctrls.rdPerTurnAround::1024-2047            8      0.00%    100.00% # Reads before turning the bus around for writes
system.mem_ctrls.rdPerTurnAround::27648-28671            1      0.00%    100.00% # Reads before turning the bus around for writes
system.mem_ctrls.rdPerTurnAround::total        532341                       # Reads before turning the bus around for writes
system.mem_ctrls.wrPerTurnAround::samples       532341                       # Writes before turning the bus around for reads
system.mem_ctrls.wrPerTurnAround::mean      16.114876                       # Writes before turning the bus around for reads
system.mem_ctrls.wrPerTurnAround::gmean     16.098296                       # Writes before turning the bus around for reads
system.mem_ctrls.wrPerTurnAround::stdev      0.937904                       # Writes before turning the bus around for reads
system.mem_ctrls.wrPerTurnAround::16-17        516817     97.08%     97.08% # Writes before turning the bus around for reads
system.mem_ctrls.wrPerTurnAround::18-19         10390      1.95%     99.04% # Writes before turning the bus around for reads
system.mem_ctrls.wrPerTurnAround::20-21          3198      0.60%     99.64% # Writes before turning the bus around for reads
system.mem_ctrls.wrPerTurnAround::22-23           964      0.18%     99.82% # Writes before turning the bus around for reads
system.mem_ctrls.wrPerTurnAround::24-25           401      0.08%     99.89% # Writes before turning the bus around for reads
system.mem_ctrls.wrPerTurnAround::26-27           185      0.03%     99.93% # Writes before turning the bus around for reads
system.mem_ctrls.wrPerTurnAround::28-29            87      0.02%     99.94% # Writes before turning the bus around for reads
system.mem_ctrls.wrPerTurnAround::30-31            71      0.01%     99.96% # Writes before turning the bus around for reads
system.mem_ctrls.wrPerTurnAround::32-33            58      0.01%     99.97% # Writes before turning the bus around for reads
system.mem_ctrls.wrPerTurnAround::34-35            25      0.00%     99.97% # Writes before turning the bus around for reads
system.mem_ctrls.wrPerTurnAround::36-37            18      0.00%     99.98% # Writes before turning the bus around for reads
system.mem_ctrls.wrPerTurnAround::38-39            14      0.00%     99.98% # Writes before turning the bus around for reads
system.mem_ctrls.wrPerTurnAround::40-41            16      0.00%     99.98% # Writes before turning the bus around for reads
system.mem_ctrls.wrPerTurnAround::42-43            11      0.00%     99.98% # Writes before turning the bus around for reads
system.mem_ctrls.wrPerTurnAround::44-45             9      0.00%     99.99% # Writes before turning the bus around for reads
system.mem_ctrls.wrPerTurnAround::46-47             5      0.00%     99.99% # Writes before turning the bus around for reads
system.mem_ctrls.wrPerTurnAround::48-49            15      0.00%     99.99% # Writes before turning the bus around for reads
system.mem_ctrls.wrPerTurnAround::50-51             7      0.00%     99.99% # Writes before turning the bus around for reads
system.mem_ctrls.wrPerTurnAround::52-53             8      0.00%     99.99% # Writes before turning the bus around for reads
system.mem_ctrls.wrPerTurnAround::54-55             8      0.00%     99.99% # Writes before turning the bus around for reads
system.mem_ctrls.wrPerTurnAround::56-57             2      0.00%     99.99% # Writes before turning the bus around for reads
system.mem_ctrls.wrPerTurnAround::58-59             3      0.00%     99.99% # Writes before turning the bus around for reads
system.mem_ctrls.wrPerTurnAround::60-61             2      0.00%     99.99% # Writes before turning the bus around for reads
system.mem_ctrls.wrPerTurnAround::62-63             1      0.00%    100.00% # Writes before turning the bus around for reads
system.mem_ctrls.wrPerTurnAround::64-65             6      0.00%    100.00% # Writes before turning the bus around for reads
system.mem_ctrls.wrPerTurnAround::66-67             3      0.00%    100.00% # Writes before turning the bus around for reads
system.mem_ctrls.wrPerTurnAround::68-69             3      0.00%    100.00% # Writes before turning the bus around for reads
system.mem_ctrls.wrPerTurnAround::70-71             2      0.00%    100.00% # Writes before turning the bus around for reads
system.mem_ctrls.wrPerTurnAround::76-77             3      0.00%    100.00% # Writes before turning the bus around for reads
system.mem_ctrls.wrPerTurnAround::80-81             1      0.00%    100.00% # Writes before turning the bus around for reads
system.mem_ctrls.wrPerTurnAround::86-87             1      0.00%    100.00% # Writes before turning the bus around for reads
system.mem_ctrls.wrPerTurnAround::88-89             1      0.00%    100.00% # Writes before turning the bus around for reads
system.mem_ctrls.wrPerTurnAround::92-93             2      0.00%    100.00% # Writes before turning the bus around for reads
system.mem_ctrls.wrPerTurnAround::96-97             2      0.00%    100.00% # Writes before turning the bus around for reads
system.mem_ctrls.wrPerTurnAround::110-111            1      0.00%    100.00% # Writes before turning the bus around for reads
system.mem_ctrls.wrPerTurnAround::118-119            1      0.00%    100.00% # Writes before turning the bus around for reads
system.mem_ctrls.wrPerTurnAround::total        532341                       # Writes before turning the bus around for reads
system.mem_ctrls.totQLat                 1138801741009                       # Total ticks spent queuing
system.mem_ctrls.totMemAccLat            1390535116009                       # Total ticks spent from burst creation until serviced by the DRAM
system.mem_ctrls.totBusLat                67128900000                       # Total ticks spent in databus transfers
system.mem_ctrls.avgQLat                     84822.02                       # Average queueing delay per DRAM burst
system.mem_ctrls.avgBusLat                    5000.00                       # Average bus latency per DRAM burst
system.mem_ctrls.avgMemAccLat               103572.02                       # Average memory access latency per DRAM burst
system.mem_ctrls.avgRdBW                      1703.91                       # Average DRAM read bandwidth in MiByte/s
system.mem_ctrls.avgWrBW                      1088.74                       # Average achieved write bandwidth in MiByte/s
system.mem_ctrls.avgRdBWSys                   1704.66                       # Average system read bandwidth in MiByte/s
system.mem_ctrls.avgWrBWSys                   1088.74                       # Average system write bandwidth in MiByte/s
system.mem_ctrls.peakBW                      12800.00                       # Theoretical peak bandwidth in MiByte/s
system.mem_ctrls.busUtil                        21.82                       # Data bus utilization in percentage
system.mem_ctrls.busUtilRead                    13.31                       # Data bus utilization in percentage for reads
system.mem_ctrls.busUtilWrite                    8.51                       # Data bus utilization in percentage for writes
system.mem_ctrls.avgRdQLen                       3.76                       # Average read queue length when enqueuing
system.mem_ctrls.avgWrQLen                      27.54                       # Average write queue length when enqueuing
system.mem_ctrls.readRowHits                  8191001                       # Number of row buffer hits during reads
system.mem_ctrls.writeRowHits                 3094957                       # Number of row buffer hits during writes
system.mem_ctrls.readRowHitRate                 61.01                       # Row buffer hit rate for reads
system.mem_ctrls.writeRowHitRate                36.08                       # Row buffer hit rate for writes
system.mem_ctrls.avgGap                      22911.18                       # Average gap between requests
system.mem_ctrls.pageHitRate                    51.29                       # Row buffer hit rate, read and write combined
system.mem_ctrls_0.actEnergy              40078228680                       # Energy for activate commands per rank (pJ)
system.mem_ctrls_0.preEnergy              21868081125                       # Energy for precharge commands per rank (pJ)
system.mem_ctrls_0.readEnergy             51053082600                       # Energy for read commands per rank (pJ)
system.mem_ctrls_0.writeEnergy            27911005920                       # Energy for write commands per rank (pJ)
system.mem_ctrls_0.refreshEnergy          32983675920                       # Energy for refresh commands per rank (pJ)
system.mem_ctrls_0.actBackEnergy         338063037930                       # Energy for active background per rank (pJ)
system.mem_ctrls_0.preBackEnergy           6449321250                       # Energy for precharge background per rank (pJ)
system.mem_ctrls_0.totalEnergy           518406433425                       # Total energy per rank (pJ)
system.mem_ctrls_0.averagePower           1026.561467                       # Core power per rank (mW)
system.mem_ctrls_0.memoryStateTime::IDLE   8412729711                       # Time in different power states
system.mem_ctrls_0.memoryStateTime::REF   16838900000                       # Time in different power states
system.mem_ctrls_0.memoryStateTime::PRE_PDN            0                       # Time in different power states
system.mem_ctrls_0.memoryStateTime::ACT  479024851539                       # Time in different power states
system.mem_ctrls_0.memoryStateTime::ACT_PDN            0                       # Time in different power states
system.mem_ctrls_1.actEnergy              41008842000                       # Energy for activate commands per rank (pJ)
system.mem_ctrls_1.preEnergy              22375856250                       # Energy for precharge commands per rank (pJ)
system.mem_ctrls_1.readEnergy             53831746800                       # Energy for read commands per rank (pJ)
system.mem_ctrls_1.writeEnergy            27678173040                       # Energy for write commands per rank (pJ)
system.mem_ctrls_1.refreshEnergy          32983675920                       # Energy for refresh commands per rank (pJ)
system.mem_ctrls_1.actBackEnergy         339838711335                       # Energy for active background per rank (pJ)
system.mem_ctrls_1.preBackEnergy           4891713000                       # Energy for precharge background per rank (pJ)
system.mem_ctrls_1.totalEnergy           522608718345                       # Total energy per rank (pJ)
system.mem_ctrls_1.averagePower           1034.882938                       # Core power per rank (mW)
system.mem_ctrls_1.memoryStateTime::IDLE   6036446859                       # Time in different power states
system.mem_ctrls_1.memoryStateTime::REF   16838900000                       # Time in different power states
system.mem_ctrls_1.memoryStateTime::PRE_PDN            0                       # Time in different power states
system.mem_ctrls_1.memoryStateTime::ACT  481401090641                       # Time in different power states
system.mem_ctrls_1.memoryStateTime::ACT_PDN            0                       # Time in different power states
system.realview.nvmem.pwrStateResidencyTicks::UNDEFINED 3740846744500                       # Cumulative time (in ticks) in various power states
system.realview.vram.pwrStateResidencyTicks::UNDEFINED 3740846744500                       # Cumulative time (in ticks) in various power states
system.pwrStateResidencyTicks::UNDEFINED 3740846744500                       # Cumulative time (in ticks) in various power states
system.bridge.pwrStateResidencyTicks::UNDEFINED 3740846744500                       # Cumulative time (in ticks) in various power states
system.cf0.dma_read_full_pages                      0                       # Number of full page size DMA reads (not PRD).
system.cf0.dma_read_bytes                           0                       # Number of bytes transfered via DMA reads (not PRD).
system.cf0.dma_read_txs                             0                       # Number of DMA read transactions (not PRD).
system.cf0.dma_write_full_pages                  2334                       # Number of full page size DMA writes.
system.cf0.dma_write_bytes                    9636864                       # Number of bytes transfered via DMA writes.
system.cf0.dma_write_txs                         2404                       # Number of DMA write transactions.
system.cpu_voltage_domain.voltage                   1                       # Voltage in Volts
system.cpu_clk_domain.clock                       500                       # Clock period in ticks
system.cpu0.dstage2_mmu.stage2_tlb.walker.pwrStateResidencyTicks::UNDEFINED 3740846744500                       # Cumulative time (in ticks) in various power states
system.cpu0.dstage2_mmu.stage2_tlb.walker.walks            0                       # Table walker walks requested
system.cpu0.dstage2_mmu.stage2_tlb.walker.walkRequestOrigin_Requested::Data            0                       # Table walker requests started/completed, data/inst
system.cpu0.dstage2_mmu.stage2_tlb.walker.walkRequestOrigin_Requested::Inst            0                       # Table walker requests started/completed, data/inst
system.cpu0.dstage2_mmu.stage2_tlb.walker.walkRequestOrigin_Requested::total            0                       # Table walker requests started/completed, data/inst
system.cpu0.dstage2_mmu.stage2_tlb.walker.walkRequestOrigin_Completed::Data            0                       # Table walker requests started/completed, data/inst
system.cpu0.dstage2_mmu.stage2_tlb.walker.walkRequestOrigin_Completed::Inst            0                       # Table walker requests started/completed, data/inst
system.cpu0.dstage2_mmu.stage2_tlb.walker.walkRequestOrigin_Completed::total            0                       # Table walker requests started/completed, data/inst
system.cpu0.dstage2_mmu.stage2_tlb.walker.walkRequestOrigin::total            0                       # Table walker requests started/completed, data/inst
system.cpu0.dstage2_mmu.stage2_tlb.inst_hits            0                       # ITB inst hits
system.cpu0.dstage2_mmu.stage2_tlb.inst_misses            0                       # ITB inst misses
system.cpu0.dstage2_mmu.stage2_tlb.read_hits            0                       # DTB read hits
system.cpu0.dstage2_mmu.stage2_tlb.read_misses            0                       # DTB read misses
system.cpu0.dstage2_mmu.stage2_tlb.write_hits            0                       # DTB write hits
system.cpu0.dstage2_mmu.stage2_tlb.write_misses            0                       # DTB write misses
system.cpu0.dstage2_mmu.stage2_tlb.flush_tlb            0                       # Number of times complete TLB was flushed
system.cpu0.dstage2_mmu.stage2_tlb.flush_tlb_mva            0                       # Number of times TLB was flushed by MVA
system.cpu0.dstage2_mmu.stage2_tlb.flush_tlb_mva_asid            0                       # Number of times TLB was flushed by MVA & ASID
system.cpu0.dstage2_mmu.stage2_tlb.flush_tlb_asid            0                       # Number of times TLB was flushed by ASID
system.cpu0.dstage2_mmu.stage2_tlb.flush_entries            0                       # Number of entries that have been flushed from TLB
system.cpu0.dstage2_mmu.stage2_tlb.align_faults            0                       # Number of TLB faults due to alignment restrictions
system.cpu0.dstage2_mmu.stage2_tlb.prefetch_faults            0                       # Number of TLB faults due to prefetch
system.cpu0.dstage2_mmu.stage2_tlb.domain_faults            0                       # Number of TLB faults due to domain restrictions
system.cpu0.dstage2_mmu.stage2_tlb.perms_faults            0                       # Number of TLB faults due to permissions restrictions
system.cpu0.dstage2_mmu.stage2_tlb.read_accesses            0                       # DTB read accesses
system.cpu0.dstage2_mmu.stage2_tlb.write_accesses            0                       # DTB write accesses
system.cpu0.dstage2_mmu.stage2_tlb.inst_accesses            0                       # ITB inst accesses
system.cpu0.dstage2_mmu.stage2_tlb.hits             0                       # DTB hits
system.cpu0.dstage2_mmu.stage2_tlb.misses            0                       # DTB misses
system.cpu0.dstage2_mmu.stage2_tlb.accesses            0                       # DTB accesses
system.cpu0.dtb.walker.pwrStateResidencyTicks::UNDEFINED 3740846744500                       # Cumulative time (in ticks) in various power states
system.cpu0.dtb.walker.walks                        0                       # Table walker walks requested
system.cpu0.dtb.walker.walkRequestOrigin_Requested::Data            0                       # Table walker requests started/completed, data/inst
system.cpu0.dtb.walker.walkRequestOrigin_Requested::Inst            0                       # Table walker requests started/completed, data/inst
system.cpu0.dtb.walker.walkRequestOrigin_Requested::total            0                       # Table walker requests started/completed, data/inst
system.cpu0.dtb.walker.walkRequestOrigin_Completed::Data            0                       # Table walker requests started/completed, data/inst
system.cpu0.dtb.walker.walkRequestOrigin_Completed::Inst            0                       # Table walker requests started/completed, data/inst
system.cpu0.dtb.walker.walkRequestOrigin_Completed::total            0                       # Table walker requests started/completed, data/inst
system.cpu0.dtb.walker.walkRequestOrigin::total            0                       # Table walker requests started/completed, data/inst
system.cpu0.dtb.inst_hits                           0                       # ITB inst hits
system.cpu0.dtb.inst_misses                         0                       # ITB inst misses
system.cpu0.dtb.read_hits                           0                       # DTB read hits
system.cpu0.dtb.read_misses                         0                       # DTB read misses
system.cpu0.dtb.write_hits                          0                       # DTB write hits
system.cpu0.dtb.write_misses                        0                       # DTB write misses
system.cpu0.dtb.flush_tlb                           0                       # Number of times complete TLB was flushed
system.cpu0.dtb.flush_tlb_mva                       0                       # Number of times TLB was flushed by MVA
system.cpu0.dtb.flush_tlb_mva_asid                  0                       # Number of times TLB was flushed by MVA & ASID
system.cpu0.dtb.flush_tlb_asid                      0                       # Number of times TLB was flushed by ASID
system.cpu0.dtb.flush_entries                       0                       # Number of entries that have been flushed from TLB
system.cpu0.dtb.align_faults                        0                       # Number of TLB faults due to alignment restrictions
system.cpu0.dtb.prefetch_faults                     0                       # Number of TLB faults due to prefetch
system.cpu0.dtb.domain_faults                       0                       # Number of TLB faults due to domain restrictions
system.cpu0.dtb.perms_faults                        0                       # Number of TLB faults due to permissions restrictions
system.cpu0.dtb.read_accesses                       0                       # DTB read accesses
system.cpu0.dtb.write_accesses                      0                       # DTB write accesses
system.cpu0.dtb.inst_accesses                       0                       # ITB inst accesses
system.cpu0.dtb.hits                                0                       # DTB hits
system.cpu0.dtb.misses                              0                       # DTB misses
system.cpu0.dtb.accesses                            0                       # DTB accesses
system.cpu0.istage2_mmu.stage2_tlb.walker.pwrStateResidencyTicks::UNDEFINED 3740846744500                       # Cumulative time (in ticks) in various power states
system.cpu0.istage2_mmu.stage2_tlb.walker.walks            0                       # Table walker walks requested
system.cpu0.istage2_mmu.stage2_tlb.walker.walkRequestOrigin_Requested::Data            0                       # Table walker requests started/completed, data/inst
system.cpu0.istage2_mmu.stage2_tlb.walker.walkRequestOrigin_Requested::Inst            0                       # Table walker requests started/completed, data/inst
system.cpu0.istage2_mmu.stage2_tlb.walker.walkRequestOrigin_Requested::total            0                       # Table walker requests started/completed, data/inst
system.cpu0.istage2_mmu.stage2_tlb.walker.walkRequestOrigin_Completed::Data            0                       # Table walker requests started/completed, data/inst
system.cpu0.istage2_mmu.stage2_tlb.walker.walkRequestOrigin_Completed::Inst            0                       # Table walker requests started/completed, data/inst
system.cpu0.istage2_mmu.stage2_tlb.walker.walkRequestOrigin_Completed::total            0                       # Table walker requests started/completed, data/inst
system.cpu0.istage2_mmu.stage2_tlb.walker.walkRequestOrigin::total            0                       # Table walker requests started/completed, data/inst
system.cpu0.istage2_mmu.stage2_tlb.inst_hits            0                       # ITB inst hits
system.cpu0.istage2_mmu.stage2_tlb.inst_misses            0                       # ITB inst misses
system.cpu0.istage2_mmu.stage2_tlb.read_hits            0                       # DTB read hits
system.cpu0.istage2_mmu.stage2_tlb.read_misses            0                       # DTB read misses
system.cpu0.istage2_mmu.stage2_tlb.write_hits            0                       # DTB write hits
system.cpu0.istage2_mmu.stage2_tlb.write_misses            0                       # DTB write misses
system.cpu0.istage2_mmu.stage2_tlb.flush_tlb            0                       # Number of times complete TLB was flushed
system.cpu0.istage2_mmu.stage2_tlb.flush_tlb_mva            0                       # Number of times TLB was flushed by MVA
system.cpu0.istage2_mmu.stage2_tlb.flush_tlb_mva_asid            0                       # Number of times TLB was flushed by MVA & ASID
system.cpu0.istage2_mmu.stage2_tlb.flush_tlb_asid            0                       # Number of times TLB was flushed by ASID
system.cpu0.istage2_mmu.stage2_tlb.flush_entries            0                       # Number of entries that have been flushed from TLB
system.cpu0.istage2_mmu.stage2_tlb.align_faults            0                       # Number of TLB faults due to alignment restrictions
system.cpu0.istage2_mmu.stage2_tlb.prefetch_faults            0                       # Number of TLB faults due to prefetch
system.cpu0.istage2_mmu.stage2_tlb.domain_faults            0                       # Number of TLB faults due to domain restrictions
system.cpu0.istage2_mmu.stage2_tlb.perms_faults            0                       # Number of TLB faults due to permissions restrictions
system.cpu0.istage2_mmu.stage2_tlb.read_accesses            0                       # DTB read accesses
system.cpu0.istage2_mmu.stage2_tlb.write_accesses            0                       # DTB write accesses
system.cpu0.istage2_mmu.stage2_tlb.inst_accesses            0                       # ITB inst accesses
system.cpu0.istage2_mmu.stage2_tlb.hits             0                       # DTB hits
system.cpu0.istage2_mmu.stage2_tlb.misses            0                       # DTB misses
system.cpu0.istage2_mmu.stage2_tlb.accesses            0                       # DTB accesses
system.cpu0.itb.walker.pwrStateResidencyTicks::UNDEFINED 3740846744500                       # Cumulative time (in ticks) in various power states
system.cpu0.itb.walker.walks                        0                       # Table walker walks requested
system.cpu0.itb.walker.walkRequestOrigin_Requested::Data            0                       # Table walker requests started/completed, data/inst
system.cpu0.itb.walker.walkRequestOrigin_Requested::Inst            0                       # Table walker requests started/completed, data/inst
system.cpu0.itb.walker.walkRequestOrigin_Requested::total            0                       # Table walker requests started/completed, data/inst
system.cpu0.itb.walker.walkRequestOrigin_Completed::Data            0                       # Table walker requests started/completed, data/inst
system.cpu0.itb.walker.walkRequestOrigin_Completed::Inst            0                       # Table walker requests started/completed, data/inst
system.cpu0.itb.walker.walkRequestOrigin_Completed::total            0                       # Table walker requests started/completed, data/inst
system.cpu0.itb.walker.walkRequestOrigin::total            0                       # Table walker requests started/completed, data/inst
system.cpu0.itb.inst_hits                           0                       # ITB inst hits
system.cpu0.itb.inst_misses                         0                       # ITB inst misses
system.cpu0.itb.read_hits                           0                       # DTB read hits
system.cpu0.itb.read_misses                         0                       # DTB read misses
system.cpu0.itb.write_hits                          0                       # DTB write hits
system.cpu0.itb.write_misses                        0                       # DTB write misses
system.cpu0.itb.flush_tlb                           0                       # Number of times complete TLB was flushed
system.cpu0.itb.flush_tlb_mva                       0                       # Number of times TLB was flushed by MVA
system.cpu0.itb.flush_tlb_mva_asid                  0                       # Number of times TLB was flushed by MVA & ASID
system.cpu0.itb.flush_tlb_asid                      0                       # Number of times TLB was flushed by ASID
system.cpu0.itb.flush_entries                       0                       # Number of entries that have been flushed from TLB
system.cpu0.itb.align_faults                        0                       # Number of TLB faults due to alignment restrictions
system.cpu0.itb.prefetch_faults                     0                       # Number of TLB faults due to prefetch
system.cpu0.itb.domain_faults                       0                       # Number of TLB faults due to domain restrictions
system.cpu0.itb.perms_faults                        0                       # Number of TLB faults due to permissions restrictions
system.cpu0.itb.read_accesses                       0                       # DTB read accesses
system.cpu0.itb.write_accesses                      0                       # DTB write accesses
system.cpu0.itb.inst_accesses                       0                       # ITB inst accesses
system.cpu0.itb.hits                                0                       # DTB hits
system.cpu0.itb.misses                              0                       # DTB misses
system.cpu0.itb.accesses                            0                       # DTB accesses
system.cpu0.pwrStateResidencyTicks::ON   504999549000                       # Cumulative time (in ticks) in various power states
system.cpu0.numCycles                               0                       # number of cpu cycles simulated
system.cpu0.numWorkItemsStarted                     0                       # number of work items this cpu started
system.cpu0.numWorkItemsCompleted                   0                       # number of work items this cpu completed
system.cpu0.kern.inst.arm                           0                       # number of arm instructions executed
system.cpu0.kern.inst.quiesce                     422                       # number of quiesce instructions executed
system.cpu0.committedInsts                          0                       # Number of instructions committed
system.cpu0.committedOps                            0                       # Number of ops (including micro ops) committed
system.cpu0.num_int_alu_accesses                    0                       # Number of integer alu accesses
system.cpu0.num_fp_alu_accesses                     0                       # Number of float alu accesses
system.cpu0.num_func_calls                          0                       # number of times a function call or return occured
system.cpu0.num_conditional_control_insts            0                       # number of instructions that are conditional controls
system.cpu0.num_int_insts                           0                       # number of integer instructions
system.cpu0.num_fp_insts                            0                       # number of float instructions
system.cpu0.num_int_register_reads                  0                       # number of times the integer registers were read
system.cpu0.num_int_register_writes                 0                       # number of times the integer registers were written
system.cpu0.num_fp_register_reads                   0                       # number of times the floating registers were read
system.cpu0.num_fp_register_writes                  0                       # number of times the floating registers were written
system.cpu0.num_mem_refs                            0                       # number of memory refs
system.cpu0.num_load_insts                          0                       # Number of load instructions
system.cpu0.num_store_insts                         0                       # Number of store instructions
system.cpu0.num_idle_cycles                         0                       # Number of idle cycles
system.cpu0.num_busy_cycles                         0                       # Number of busy cycles
system.cpu0.not_idle_fraction                       0                       # Percentage of non-idle cycles
system.cpu0.idle_fraction                           1                       # Percentage of idle cycles
system.cpu0.op_class::No_OpClass                    0                       # Class of executed instruction
system.cpu0.op_class::IntAlu                        0                       # Class of executed instruction
system.cpu0.op_class::IntMult                       0                       # Class of executed instruction
system.cpu0.op_class::IntDiv                        0                       # Class of executed instruction
system.cpu0.op_class::FloatAdd                      0                       # Class of executed instruction
system.cpu0.op_class::FloatCmp                      0                       # Class of executed instruction
system.cpu0.op_class::FloatCvt                      0                       # Class of executed instruction
system.cpu0.op_class::FloatMult                     0                       # Class of executed instruction
system.cpu0.op_class::FloatDiv                      0                       # Class of executed instruction
system.cpu0.op_class::FloatSqrt                     0                       # Class of executed instruction
system.cpu0.op_class::SimdAdd                       0                       # Class of executed instruction
system.cpu0.op_class::SimdAddAcc                    0                       # Class of executed instruction
system.cpu0.op_class::SimdAlu                       0                       # Class of executed instruction
system.cpu0.op_class::SimdCmp                       0                       # Class of executed instruction
system.cpu0.op_class::SimdCvt                       0                       # Class of executed instruction
system.cpu0.op_class::SimdMisc                      0                       # Class of executed instruction
system.cpu0.op_class::SimdMult                      0                       # Class of executed instruction
system.cpu0.op_class::SimdMultAcc                   0                       # Class of executed instruction
system.cpu0.op_class::SimdShift                     0                       # Class of executed instruction
system.cpu0.op_class::SimdShiftAcc                  0                       # Class of executed instruction
system.cpu0.op_class::SimdSqrt                      0                       # Class of executed instruction
system.cpu0.op_class::SimdFloatAdd                  0                       # Class of executed instruction
system.cpu0.op_class::SimdFloatAlu                  0                       # Class of executed instruction
system.cpu0.op_class::SimdFloatCmp                  0                       # Class of executed instruction
system.cpu0.op_class::SimdFloatCvt                  0                       # Class of executed instruction
system.cpu0.op_class::SimdFloatDiv                  0                       # Class of executed instruction
system.cpu0.op_class::SimdFloatMisc                 0                       # Class of executed instruction
system.cpu0.op_class::SimdFloatMult                 0                       # Class of executed instruction
system.cpu0.op_class::SimdFloatMultAcc              0                       # Class of executed instruction
system.cpu0.op_class::SimdFloatSqrt                 0                       # Class of executed instruction
system.cpu0.op_class::MemRead                       0                       # Class of executed instruction
system.cpu0.op_class::MemWrite                      0                       # Class of executed instruction
system.cpu0.op_class::IprAccess                     0                       # Class of executed instruction
system.cpu0.op_class::InstPrefetch                  0                       # Class of executed instruction
system.cpu0.op_class::total                         0                       # Class of executed instruction
system.cpu0.dcache.tags.pwrStateResidencyTicks::UNDEFINED 3740846744500                       # Cumulative time (in ticks) in various power states
system.cpu0.dcache.tags.replacements         11610965                       # number of replacements
system.cpu0.dcache.tags.tagsinuse         1021.127816                       # Cycle average of tags in use
system.cpu0.dcache.tags.total_refs          139684085                       # Total number of references to valid blocks.
system.cpu0.dcache.tags.sampled_refs         11611940                       # Sample count of references to valid blocks.
system.cpu0.dcache.tags.avg_refs            12.029350                       # Average number of references to valid blocks.
system.cpu0.dcache.tags.warmup_cycle     3237911144500                       # Cycle when the warmup percentage was hit.
system.cpu0.dcache.tags.occ_blocks::switch_cpus0.data  1021.127816                       # Average occupied blocks per requestor
system.cpu0.dcache.tags.occ_percent::switch_cpus0.data     0.997195                       # Average percentage of cache occupancy
system.cpu0.dcache.tags.occ_percent::total     0.997195                       # Average percentage of cache occupancy
system.cpu0.dcache.tags.occ_task_id_blocks::1024          975                       # Occupied blocks per task id
system.cpu0.dcache.tags.age_task_id_blocks_1024::0           51                       # Occupied blocks per task id
system.cpu0.dcache.tags.age_task_id_blocks_1024::1          278                       # Occupied blocks per task id
system.cpu0.dcache.tags.age_task_id_blocks_1024::2          646                       # Occupied blocks per task id
system.cpu0.dcache.tags.occ_task_id_percent::1024     0.952148                       # Percentage of cache occupancy per task id
system.cpu0.dcache.tags.tag_accesses        344492231                       # Number of tag accesses
system.cpu0.dcache.tags.data_accesses       344492231                       # Number of data accesses
system.cpu0.dcache.pwrStateResidencyTicks::UNDEFINED 3740846744500                       # Cumulative time (in ticks) in various power states
system.cpu0.dcache.ReadReq_hits::switch_cpus0.data     93324244                       # number of ReadReq hits
system.cpu0.dcache.ReadReq_hits::total       93324244                       # number of ReadReq hits
system.cpu0.dcache.WriteReq_hits::switch_cpus0.data     45803176                       # number of WriteReq hits
system.cpu0.dcache.WriteReq_hits::total      45803176                       # number of WriteReq hits
system.cpu0.dcache.SoftPFReq_hits::switch_cpus0.data        40600                       # number of SoftPFReq hits
system.cpu0.dcache.SoftPFReq_hits::total        40600                       # number of SoftPFReq hits
system.cpu0.dcache.LoadLockedReq_hits::switch_cpus0.data       237188                       # number of LoadLockedReq hits
system.cpu0.dcache.LoadLockedReq_hits::total       237188                       # number of LoadLockedReq hits
system.cpu0.dcache.StoreCondReq_hits::switch_cpus0.data       236375                       # number of StoreCondReq hits
system.cpu0.dcache.StoreCondReq_hits::total       236375                       # number of StoreCondReq hits
system.cpu0.dcache.demand_hits::switch_cpus0.data    139127420                       # number of demand (read+write) hits
system.cpu0.dcache.demand_hits::total       139127420                       # number of demand (read+write) hits
system.cpu0.dcache.overall_hits::switch_cpus0.data    139168020                       # number of overall hits
system.cpu0.dcache.overall_hits::total      139168020                       # number of overall hits
system.cpu0.dcache.ReadReq_misses::switch_cpus0.data     25459104                       # number of ReadReq misses
system.cpu0.dcache.ReadReq_misses::total     25459104                       # number of ReadReq misses
system.cpu0.dcache.WriteReq_misses::switch_cpus0.data      1272714                       # number of WriteReq misses
system.cpu0.dcache.WriteReq_misses::total      1272714                       # number of WriteReq misses
system.cpu0.dcache.SoftPFReq_misses::switch_cpus0.data        52062                       # number of SoftPFReq misses
system.cpu0.dcache.SoftPFReq_misses::total        52062                       # number of SoftPFReq misses
system.cpu0.dcache.LoadLockedReq_misses::switch_cpus0.data         4745                       # number of LoadLockedReq misses
system.cpu0.dcache.LoadLockedReq_misses::total         4745                       # number of LoadLockedReq misses
system.cpu0.dcache.StoreCondReq_misses::switch_cpus0.data         4725                       # number of StoreCondReq misses
system.cpu0.dcache.StoreCondReq_misses::total         4725                       # number of StoreCondReq misses
system.cpu0.dcache.demand_misses::switch_cpus0.data     26731818                       # number of demand (read+write) misses
system.cpu0.dcache.demand_misses::total      26731818                       # number of demand (read+write) misses
system.cpu0.dcache.overall_misses::switch_cpus0.data     26783880                       # number of overall misses
system.cpu0.dcache.overall_misses::total     26783880                       # number of overall misses
system.cpu0.dcache.ReadReq_miss_latency::switch_cpus0.data 1305873741000                       # number of ReadReq miss cycles
system.cpu0.dcache.ReadReq_miss_latency::total 1305873741000                       # number of ReadReq miss cycles
system.cpu0.dcache.WriteReq_miss_latency::switch_cpus0.data  30262855295                       # number of WriteReq miss cycles
system.cpu0.dcache.WriteReq_miss_latency::total  30262855295                       # number of WriteReq miss cycles
system.cpu0.dcache.LoadLockedReq_miss_latency::switch_cpus0.data    184997000                       # number of LoadLockedReq miss cycles
system.cpu0.dcache.LoadLockedReq_miss_latency::total    184997000                       # number of LoadLockedReq miss cycles
system.cpu0.dcache.StoreCondReq_miss_latency::switch_cpus0.data     30296000                       # number of StoreCondReq miss cycles
system.cpu0.dcache.StoreCondReq_miss_latency::total     30296000                       # number of StoreCondReq miss cycles
system.cpu0.dcache.StoreCondFailReq_miss_latency::switch_cpus0.data        51000                       # number of StoreCondFailReq miss cycles
system.cpu0.dcache.StoreCondFailReq_miss_latency::total        51000                       # number of StoreCondFailReq miss cycles
system.cpu0.dcache.demand_miss_latency::switch_cpus0.data 1336136596295                       # number of demand (read+write) miss cycles
system.cpu0.dcache.demand_miss_latency::total 1336136596295                       # number of demand (read+write) miss cycles
system.cpu0.dcache.overall_miss_latency::switch_cpus0.data 1336136596295                       # number of overall miss cycles
system.cpu0.dcache.overall_miss_latency::total 1336136596295                       # number of overall miss cycles
system.cpu0.dcache.ReadReq_accesses::switch_cpus0.data    118783348                       # number of ReadReq accesses(hits+misses)
system.cpu0.dcache.ReadReq_accesses::total    118783348                       # number of ReadReq accesses(hits+misses)
system.cpu0.dcache.WriteReq_accesses::switch_cpus0.data     47075890                       # number of WriteReq accesses(hits+misses)
system.cpu0.dcache.WriteReq_accesses::total     47075890                       # number of WriteReq accesses(hits+misses)
system.cpu0.dcache.SoftPFReq_accesses::switch_cpus0.data        92662                       # number of SoftPFReq accesses(hits+misses)
system.cpu0.dcache.SoftPFReq_accesses::total        92662                       # number of SoftPFReq accesses(hits+misses)
system.cpu0.dcache.LoadLockedReq_accesses::switch_cpus0.data       241933                       # number of LoadLockedReq accesses(hits+misses)
system.cpu0.dcache.LoadLockedReq_accesses::total       241933                       # number of LoadLockedReq accesses(hits+misses)
system.cpu0.dcache.StoreCondReq_accesses::switch_cpus0.data       241100                       # number of StoreCondReq accesses(hits+misses)
system.cpu0.dcache.StoreCondReq_accesses::total       241100                       # number of StoreCondReq accesses(hits+misses)
system.cpu0.dcache.demand_accesses::switch_cpus0.data    165859238                       # number of demand (read+write) accesses
system.cpu0.dcache.demand_accesses::total    165859238                       # number of demand (read+write) accesses
system.cpu0.dcache.overall_accesses::switch_cpus0.data    165951900                       # number of overall (read+write) accesses
system.cpu0.dcache.overall_accesses::total    165951900                       # number of overall (read+write) accesses
system.cpu0.dcache.ReadReq_miss_rate::switch_cpus0.data     0.214332                       # miss rate for ReadReq accesses
system.cpu0.dcache.ReadReq_miss_rate::total     0.214332                       # miss rate for ReadReq accesses
system.cpu0.dcache.WriteReq_miss_rate::switch_cpus0.data     0.027035                       # miss rate for WriteReq accesses
system.cpu0.dcache.WriteReq_miss_rate::total     0.027035                       # miss rate for WriteReq accesses
system.cpu0.dcache.SoftPFReq_miss_rate::switch_cpus0.data     0.561848                       # miss rate for SoftPFReq accesses
system.cpu0.dcache.SoftPFReq_miss_rate::total     0.561848                       # miss rate for SoftPFReq accesses
system.cpu0.dcache.LoadLockedReq_miss_rate::switch_cpus0.data     0.019613                       # miss rate for LoadLockedReq accesses
system.cpu0.dcache.LoadLockedReq_miss_rate::total     0.019613                       # miss rate for LoadLockedReq accesses
system.cpu0.dcache.StoreCondReq_miss_rate::switch_cpus0.data     0.019598                       # miss rate for StoreCondReq accesses
system.cpu0.dcache.StoreCondReq_miss_rate::total     0.019598                       # miss rate for StoreCondReq accesses
system.cpu0.dcache.demand_miss_rate::switch_cpus0.data     0.161172                       # miss rate for demand accesses
system.cpu0.dcache.demand_miss_rate::total     0.161172                       # miss rate for demand accesses
system.cpu0.dcache.overall_miss_rate::switch_cpus0.data     0.161395                       # miss rate for overall accesses
system.cpu0.dcache.overall_miss_rate::total     0.161395                       # miss rate for overall accesses
system.cpu0.dcache.ReadReq_avg_miss_latency::switch_cpus0.data 51292.996839                       # average ReadReq miss latency
system.cpu0.dcache.ReadReq_avg_miss_latency::total 51292.996839                       # average ReadReq miss latency
system.cpu0.dcache.WriteReq_avg_miss_latency::switch_cpus0.data 23778.205705                       # average WriteReq miss latency
system.cpu0.dcache.WriteReq_avg_miss_latency::total 23778.205705                       # average WriteReq miss latency
system.cpu0.dcache.LoadLockedReq_avg_miss_latency::switch_cpus0.data 38987.776607                       # average LoadLockedReq miss latency
system.cpu0.dcache.LoadLockedReq_avg_miss_latency::total 38987.776607                       # average LoadLockedReq miss latency
system.cpu0.dcache.StoreCondReq_avg_miss_latency::switch_cpus0.data  6411.851852                       # average StoreCondReq miss latency
system.cpu0.dcache.StoreCondReq_avg_miss_latency::total  6411.851852                       # average StoreCondReq miss latency
system.cpu0.dcache.StoreCondFailReq_avg_miss_latency::switch_cpus0.data          inf                       # average StoreCondFailReq miss latency
[...]
system.switch_cpus3.commit.op_class_0::SimdFloatAlu            0      0.00%     64.73% # Class of committed instruction
system.switch_cpus3.commit.op_class_0::SimdFloatCmp            5      0.00%     64.73% # Class of committed instruction
system.switch_cpus3.commit.op_class_0::SimdFloatCvt            4      0.00%     64.73% # Class of committed instruction
system.switch_cpus3.commit.op_class_0::SimdFloatDiv            0      0.00%     64.73% # Class of committed instruction
system.switch_cpus3.commit.op_class_0::SimdFloatMisc          893      0.00%     64.73% # Class of committed instruction
system.switch_cpus3.commit.op_class_0::SimdFloatMult            2      0.00%     64.73% # Class of committed instruction
system.switch_cpus3.commit.op_class_0::SimdFloatMultAcc            0      0.00%     64.73% # Class of committed instruction
system.switch_cpus3.commit.op_class_0::SimdFloatSqrt            0      0.00%     64.73% # Class of committed instruction
system.switch_cpus3.commit.op_class_0::MemRead    228730187     17.76%     82.49% # Class of committed instruction
system.switch_cpus3.commit.op_class_0::MemWrite    225538109     17.51%    100.00% # Class of committed instruction
system.switch_cpus3.commit.op_class_0::IprAccess            0      0.00%    100.00% # Class of committed instruction
system.switch_cpus3.commit.op_class_0::InstPrefetch            0      0.00%    100.00% # Class of committed instruction
system.switch_cpus3.commit.op_class_0::total   1287927196                       # Class of committed instruction
system.switch_cpus3.commit.bw_lim_events     30470988                       # number cycles where commit BW limit reached
system.switch_cpus3.rob.rob_reads          2245365892                       # The number of ROB reads
system.switch_cpus3.rob.rob_writes         2804568776                       # The number of ROB writes
system.switch_cpus3.timesIdled                 794838                       # Number of times that the entire CPU went into an idle state and unscheduled itself
system.switch_cpus3.idleCycles               97166795                       # Total number of cycles that the CPU has spent unscheduled due to idling
system.switch_cpus3.quiesceCycles             8326713                       # Total number of cycles that CPU has spent quiesced or waiting for an interrupt
system.switch_cpus3.committedInsts         1034397705                       # Number of Instructions Simulated
system.switch_cpus3.committedOps           1287903386                       # Number of Ops (including micro ops) Simulated
system.switch_cpus3.cpi                      0.966977                       # CPI: Cycles Per Instruction
system.switch_cpus3.cpi_total                0.966977                       # CPI: Total CPI of All Threads
system.switch_cpus3.ipc                      1.034151                       # IPC: Instructions Per Cycle
system.switch_cpus3.ipc_total                1.034151                       # IPC: Total IPC of All Threads
system.switch_cpus3.int_regfile_reads      1507573219                       # number of integer regfile reads
system.switch_cpus3.int_regfile_writes      776203463                       # number of integer regfile writes
system.switch_cpus3.fp_regfile_reads             3411                       # number of floating regfile reads
system.switch_cpus3.fp_regfile_writes            1950                       # number of floating regfile writes
system.switch_cpus3.cc_regfile_reads       4709118677                       # number of cc regfile reads
system.switch_cpus3.cc_regfile_writes       742924075                       # number of cc regfile writes
system.switch_cpus3.misc_regfile_reads     2329827050                       # number of misc regfile reads
system.switch_cpus3.misc_regfile_writes       4321921                       # number of misc regfile writes
system.tol2bus.snoop_filter.tot_requests     62554055                       # Total number of requests made to the snoop filter.
system.tol2bus.snoop_filter.hit_single_requests     30985806                       # Number of requests hitting in the snoop filter with a single holder of the requested data.
system.tol2bus.snoop_filter.hit_multi_requests      1904389                       # Number of requests hitting in the snoop filter with multiple (>1) holders of the requested data.
system.tol2bus.snoop_filter.tot_snoops         122014                       # Total number of snoops made to the snoop filter.
system.tol2bus.snoop_filter.hit_single_snoops       118561                       # Number of snoops hitting in the snoop filter with a single holder of the requested data.
system.tol2bus.snoop_filter.hit_multi_snoops         3453                       # Number of snoops hitting in the snoop filter with multiple (>1) holders of the requested data.
system.tol2bus.pwrStateResidencyTicks::UNDEFINED 3740846744500                       # Cumulative time (in ticks) in various power states
system.tol2bus.trans_dist::ReadReq               4473                       # Transaction distribution
system.tol2bus.trans_dist::ReadResp          23927775                       # Transaction distribution
system.tol2bus.trans_dist::WriteReq              5395                       # Transaction distribution
system.tol2bus.trans_dist::WriteResp             5395                       # Transaction distribution
system.tol2bus.trans_dist::WritebackDirty     20141490                       # Transaction distribution
system.tol2bus.trans_dist::WritebackClean     19402673                       # Transaction distribution
system.tol2bus.trans_dist::CleanEvict         3552048                       # Transaction distribution
system.tol2bus.trans_dist::HardPFReq         10042434                       # Transaction distribution
system.tol2bus.trans_dist::UpgradeReq          131936                       # Transaction distribution
system.tol2bus.trans_dist::SCUpgradeReq         16283                       # Transaction distribution
system.tol2bus.trans_dist::UpgradeResp         148219                       # Transaction distribution
system.tol2bus.trans_dist::SCUpgradeFailReq            7                       # Transaction distribution
system.tol2bus.trans_dist::UpgradeFailResp            7                       # Transaction distribution
system.tol2bus.trans_dist::ReadExReq          7364283                       # Transaction distribution
system.tol2bus.trans_dist::ReadExResp         7364283                       # Transaction distribution
system.tol2bus.trans_dist::ReadCleanReq      11430377                       # Transaction distribution
system.tol2bus.trans_dist::ReadSharedReq     12492973                       # Transaction distribution
system.tol2bus.trans_dist::InvalidateReq         6699                       # Transaction distribution
system.tol2bus.pkt_count_system.cpu0.icache.mem_side::system.l2.cpu_side      3061049                       # Packet count per connected master and slave (bytes)
system.tol2bus.pkt_count_system.cpu0.dcache.mem_side::system.l2.cpu_side     34873507                       # Packet count per connected master and slave (bytes)
system.tol2bus.pkt_count_system.cpu0.itb_walker_cache.mem_side::system.l2.cpu_side         2734                       # Packet count per connected master and slave (bytes)
system.tol2bus.pkt_count_system.cpu0.dtb_walker_cache.mem_side::system.l2.cpu_side      4262332                       # Packet count per connected master and slave (bytes)
system.tol2bus.pkt_count_system.cpu1.icache.mem_side::system.l2.cpu_side      4365100                       # Packet count per connected master and slave (bytes)
system.tol2bus.pkt_count_system.cpu1.dcache.mem_side::system.l2.cpu_side       962874                       # Packet count per connected master and slave (bytes)
system.tol2bus.pkt_count_system.cpu1.itb_walker_cache.mem_side::system.l2.cpu_side         9072                       # Packet count per connected master and slave (bytes)
system.tol2bus.pkt_count_system.cpu1.dtb_walker_cache.mem_side::system.l2.cpu_side        25020                       # Packet count per connected master and slave (bytes)
system.tol2bus.pkt_count_system.cpu2.icache.mem_side::system.l2.cpu_side      5433515                       # Packet count per connected master and slave (bytes)
system.tol2bus.pkt_count_system.cpu2.dcache.mem_side::system.l2.cpu_side     23437737                       # Packet count per connected master and slave (bytes)
system.tol2bus.pkt_count_system.cpu2.itb_walker_cache.mem_side::system.l2.cpu_side         3117                       # Packet count per connected master and slave (bytes)
system.tol2bus.pkt_count_system.cpu2.dtb_walker_cache.mem_side::system.l2.cpu_side       166178                       # Packet count per connected master and slave (bytes)
system.tol2bus.pkt_count_system.cpu3.icache.mem_side::system.l2.cpu_side     16674322                       # Packet count per connected master and slave (bytes)
system.tol2bus.pkt_count_system.cpu3.dcache.mem_side::system.l2.cpu_side       509663                       # Packet count per connected master and slave (bytes)
system.tol2bus.pkt_count_system.cpu3.itb_walker_cache.mem_side::system.l2.cpu_side         4623                       # Packet count per connected master and slave (bytes)
system.tol2bus.pkt_count_system.cpu3.dtb_walker_cache.mem_side::system.l2.cpu_side        15955                       # Packet count per connected master and slave (bytes)
system.tol2bus.pkt_count::total              93806798                       # Packet count per connected master and slave (bytes)
system.tol2bus.pkt_size_system.cpu0.icache.mem_side::system.l2.cpu_side    130603584                       # Cumulative packet size per connected master and slave (bytes)
system.tol2bus.pkt_size_system.cpu0.dcache.mem_side::system.l2.cpu_side   1486086818                       # Cumulative packet size per connected master and slave (bytes)
system.tol2bus.pkt_size_system.cpu0.itb_walker_cache.mem_side::system.l2.cpu_side        76864                       # Cumulative packet size per connected master and slave (bytes)
system.tol2bus.pkt_size_system.cpu0.dtb_walker_cache.mem_side::system.l2.cpu_side    181729408                       # Cumulative packet size per connected master and slave (bytes)
system.tol2bus.pkt_size_system.cpu1.icache.mem_side::system.l2.cpu_side    186243776                       # Cumulative packet size per connected master and slave (bytes)
system.tol2bus.pkt_size_system.cpu1.dcache.mem_side::system.l2.cpu_side     40088700                       # Cumulative packet size per connected master and slave (bytes)
system.tol2bus.pkt_size_system.cpu1.itb_walker_cache.mem_side::system.l2.cpu_side       304832                       # Cumulative packet size per connected master and slave (bytes)
system.tol2bus.pkt_size_system.cpu1.dtb_walker_cache.mem_side::system.l2.cpu_side       932480                       # Cumulative packet size per connected master and slave (bytes)
system.tol2bus.pkt_size_system.cpu2.icache.mem_side::system.l2.cpu_side    231829376                       # Cumulative packet size per connected master and slave (bytes)
system.tol2bus.pkt_size_system.cpu2.dcache.mem_side::system.l2.cpu_side    989601061                       # Cumulative packet size per connected master and slave (bytes)
system.tol2bus.pkt_size_system.cpu2.itb_walker_cache.mem_side::system.l2.cpu_side        92544                       # Cumulative packet size per connected master and slave (bytes)
system.tol2bus.pkt_size_system.cpu2.dtb_walker_cache.mem_side::system.l2.cpu_side      1960704                       # Cumulative packet size per connected master and slave (bytes)
system.tol2bus.pkt_size_system.cpu3.icache.mem_side::system.l2.cpu_side    711437632                       # Cumulative packet size per connected master and slave (bytes)
system.tol2bus.pkt_size_system.cpu3.dcache.mem_side::system.l2.cpu_side     20898349                       # Cumulative packet size per connected master and slave (bytes)
system.tol2bus.pkt_size_system.cpu3.itb_walker_cache.mem_side::system.l2.cpu_side       135808                       # Cumulative packet size per connected master and slave (bytes)
system.tol2bus.pkt_size_system.cpu3.dtb_walker_cache.mem_side::system.l2.cpu_side       581952                       # Cumulative packet size per connected master and slave (bytes)
system.tol2bus.pkt_size::total             3982603888                       # Cumulative packet size per connected master and slave (bytes)
system.tol2bus.snoops                        22231016                       # Total snoops (count)
system.tol2bus.snoopTraffic                 550715584                       # Total snoop traffic (bytes)
system.tol2bus.snoop_fanout::samples         53476744                       # Request fanout histogram
system.tol2bus.snoop_fanout::mean            0.042721                       # Request fanout histogram
system.tol2bus.snoop_fanout::stdev           0.243503                       # Request fanout histogram
system.tol2bus.snoop_fanout::underflows             0      0.00%      0.00% # Request fanout histogram
system.tol2bus.snoop_fanout::0               51584027     96.46%     96.46% # Request fanout histogram
system.tol2bus.snoop_fanout::1                1582309      2.96%     99.42% # Request fanout histogram
system.tol2bus.snoop_fanout::2                 240881      0.45%     99.87% # Request fanout histogram
system.tol2bus.snoop_fanout::3                  62463      0.12%     99.99% # Request fanout histogram
system.tol2bus.snoop_fanout::4                   3710      0.01%     99.99% # Request fanout histogram
system.tol2bus.snoop_fanout::5                   2150      0.00%    100.00% # Request fanout histogram
system.tol2bus.snoop_fanout::6                    897      0.00%    100.00% # Request fanout histogram
system.tol2bus.snoop_fanout::7                    307      0.00%    100.00% # Request fanout histogram
system.tol2bus.snoop_fanout::8                      0      0.00%    100.00% # Request fanout histogram
system.tol2bus.snoop_fanout::9                      0      0.00%    100.00% # Request fanout histogram
system.tol2bus.snoop_fanout::10                     0      0.00%    100.00% # Request fanout histogram
system.tol2bus.snoop_fanout::11                     0      0.00%    100.00% # Request fanout histogram
system.tol2bus.snoop_fanout::12                     0      0.00%    100.00% # Request fanout histogram
system.tol2bus.snoop_fanout::13                     0      0.00%    100.00% # Request fanout histogram
system.tol2bus.snoop_fanout::14                     0      0.00%    100.00% # Request fanout histogram
system.tol2bus.snoop_fanout::15                     0      0.00%    100.00% # Request fanout histogram
system.tol2bus.snoop_fanout::16                     0      0.00%    100.00% # Request fanout histogram
system.tol2bus.snoop_fanout::overflows              0      0.00%    100.00% # Request fanout histogram
system.tol2bus.snoop_fanout::min_value              0                       # Request fanout histogram
system.tol2bus.snoop_fanout::max_value              7                       # Request fanout histogram
system.tol2bus.snoop_fanout::total           53476744                       # Request fanout histogram
system.tol2bus.reqLayer0.occupancy        62402288405                       # Layer occupancy (ticks)
system.tol2bus.reqLayer0.utilization             12.4                       # Layer utilization (%)
system.tol2bus.snoopLayer0.occupancy          1695553                       # Layer occupancy (ticks)
system.tol2bus.snoopLayer0.utilization            0.0                       # Layer utilization (%)
system.tol2bus.respLayer0.occupancy        1535850347                       # Layer occupancy (ticks)
system.tol2bus.respLayer0.utilization             0.3                       # Layer utilization (%)
system.tol2bus.respLayer1.occupancy       17491538445                       # Layer occupancy (ticks)
system.tol2bus.respLayer1.utilization             3.5                       # Layer utilization (%)
system.tol2bus.respLayer2.occupancy           2305488                       # Layer occupancy (ticks)
system.tol2bus.respLayer2.utilization             0.0                       # Layer utilization (%)
system.tol2bus.respLayer3.occupancy        2135968961                       # Layer occupancy (ticks)
system.tol2bus.respLayer3.utilization             0.4                       # Layer utilization (%)
system.tol2bus.respLayer4.occupancy        2187027531                       # Layer occupancy (ticks)
system.tol2bus.respLayer4.utilization             0.4                       # Layer utilization (%)
system.tol2bus.respLayer5.occupancy         490142199                       # Layer occupancy (ticks)
system.tol2bus.respLayer5.utilization             0.1                       # Layer utilization (%)
system.tol2bus.respLayer6.occupancy           6493439                       # Layer occupancy (ticks)
system.tol2bus.respLayer6.utilization             0.0                       # Layer utilization (%)
system.tol2bus.respLayer7.occupancy          15739870                       # Layer occupancy (ticks)
system.tol2bus.respLayer7.utilization             0.0                       # Layer utilization (%)
system.tol2bus.respLayer8.occupancy        2722588317                       # Layer occupancy (ticks)
system.tol2bus.respLayer8.utilization             0.5                       # Layer utilization (%)
system.tol2bus.respLayer9.occupancy       11694303884                       # Layer occupancy (ticks)
system.tol2bus.respLayer9.utilization             2.3                       # Layer utilization (%)
system.tol2bus.respLayer10.occupancy          2510991                       # Layer occupancy (ticks)
system.tol2bus.respLayer10.utilization            0.0                       # Layer utilization (%)
system.tol2bus.respLayer11.occupancy        203437749                       # Layer occupancy (ticks)
system.tol2bus.respLayer11.utilization            0.0                       # Layer utilization (%)
system.tol2bus.respLayer12.occupancy       8348882087                       # Layer occupancy (ticks)
system.tol2bus.respLayer12.utilization            1.7                       # Layer utilization (%)
system.tol2bus.respLayer13.occupancy        262412751                       # Layer occupancy (ticks)
system.tol2bus.respLayer13.utilization            0.1                       # Layer utilization (%)
system.tol2bus.respLayer14.occupancy          3759484                       # Layer occupancy (ticks)
system.tol2bus.respLayer14.utilization            0.0                       # Layer utilization (%)
system.tol2bus.respLayer15.occupancy         10330923                       # Layer occupancy (ticks)
system.tol2bus.respLayer15.utilization            0.0                       # Layer utilization (%)
system.switch_cpus0.kern.inst.arm                   0                       # number of arm instructions executed
system.switch_cpus0.kern.inst.quiesce               0                       # number of quiesce instructions executed
system.switch_cpus1.kern.inst.arm                   0                       # number of arm instructions executed
system.switch_cpus1.kern.inst.quiesce               0                       # number of quiesce instructions executed
system.switch_cpus2.kern.inst.arm                   0                       # number of arm instructions executed
system.switch_cpus2.kern.inst.quiesce               0                       # number of quiesce instructions executed
system.switch_cpus3.kern.inst.arm                   0                       # number of arm instructions executed
system.switch_cpus3.kern.inst.quiesce               0                       # number of quiesce instructions executed

---------- End Simulation Statistics   ----------
