
---------- Begin Simulation Statistics ----------
sim_seconds                                  0.504323                       # Number of seconds simulated
sim_ticks                                504323118500                       # Number of ticks simulated
final_tick                               3740867630500                       # Number of ticks from beginning of simulation (restored from checkpoints and never reset)
sim_freq                                 1000000000000                       # Frequency of simulated ticks
host_inst_rate                                  98993                       # Simulator instruction rate (inst/s)
host_op_rate                                   118197                       # Simulator op (including micro ops) rate (op/s)
host_tick_rate                               18529741                       # Simulator tick rate (ticks/s)
host_mem_usage                                2637780                       # Number of bytes of host memory used
host_seconds                                 27216.95                       # Real time elapsed on the host
sim_insts                                  2694300928                       # Number of instructions simulated
sim_ops                                    3216957217                       # Number of ops (including micro ops) simulated
system.voltage_domain.voltage                       1                       # Voltage in Volts
system.clk_domain.clock                          1000                       # Clock period in ticks
system.mem_ctrls.pwrStateResidencyTicks::UNDEFINED 3740867630500                       # Cumulative time (in ticks) in various power states
system.mem_ctrls.bytes_read::l2.prefetcher    464122432                       # Number of bytes read from this memory
system.mem_ctrls.bytes_read::switch_cpus0.dtb.walker      4499392                       # Number of bytes read from this memory
system.mem_ctrls.bytes_read::switch_cpus0.itb.walker        21696                       # Number of bytes read from this memory
system.mem_ctrls.bytes_read::switch_cpus0.inst     20955328                       # Number of bytes read from this memory
system.mem_ctrls.bytes_read::switch_cpus0.data    231148736                       # Number of bytes read from this memory
system.mem_ctrls.bytes_read::switch_cpus1.dtb.walker       284224                       # Number of bytes read from this memory
system.mem_ctrls.bytes_read::switch_cpus1.itb.walker       106688                       # Number of bytes read from this memory
system.mem_ctrls.bytes_read::switch_cpus1.inst     16063232                       # Number of bytes read from this memory
system.mem_ctrls.bytes_read::switch_cpus1.data      5787264                       # Number of bytes read from this memory
system.mem_ctrls.bytes_read::switch_cpus2.dtb.walker       433856                       # Number of bytes read from this memory
system.mem_ctrls.bytes_read::switch_cpus2.itb.walker        20224                       # Number of bytes read from this memory
system.mem_ctrls.bytes_read::switch_cpus2.inst     28397312                       # Number of bytes read from this memory
system.mem_ctrls.bytes_read::switch_cpus2.data     48284672                       # Number of bytes read from this memory
system.mem_ctrls.bytes_read::switch_cpus3.dtb.walker       137024                       # Number of bytes read from this memory
system.mem_ctrls.bytes_read::switch_cpus3.itb.walker        40640                       # Number of bytes read from this memory
system.mem_ctrls.bytes_read::switch_cpus3.inst     42435264                       # Number of bytes read from this memory
system.mem_ctrls.bytes_read::switch_cpus3.data      4995648                       # Number of bytes read from this memory
system.mem_ctrls.bytes_read::total          867733632                       # Number of bytes read from this memory
system.mem_ctrls.bytes_inst_read::switch_cpus0.inst     20955328                       # Number of instructions bytes read from this memory
system.mem_ctrls.bytes_inst_read::switch_cpus1.inst     16063232                       # Number of instructions bytes read from this memory
system.mem_ctrls.bytes_inst_read::switch_cpus2.inst     28397312                       # Number of instructions bytes read from this memory
system.mem_ctrls.bytes_inst_read::switch_cpus3.inst     42435264                       # Number of instructions bytes read from this memory
system.mem_ctrls.bytes_inst_read::total     107851136                       # Number of instructions bytes read from this memory
system.mem_ctrls.bytes_written::writebacks    547895296                       # Number of bytes written to this memory
system.mem_ctrls.bytes_written::total       547895296                       # Number of bytes written to this memory
system.mem_ctrls.num_reads::l2.prefetcher      7251913                       # Number of read requests responded to by this memory
system.mem_ctrls.num_reads::switch_cpus0.dtb.walker        70303                       # Number of read requests responded to by this memory
system.mem_ctrls.num_reads::switch_cpus0.itb.walker          339                       # Number of read requests responded to by this memory
system.mem_ctrls.num_reads::switch_cpus0.inst       327427                       # Number of read requests responded to by this memory
system.mem_ctrls.num_reads::switch_cpus0.data      3611699                       # Number of read requests responded to by this memory
system.mem_ctrls.num_reads::switch_cpus1.dtb.walker         4441                       # Number of read requests responded to by this memory
system.mem_ctrls.num_reads::switch_cpus1.itb.walker         1667                       # Number of read requests responded to by this memory
system.mem_ctrls.num_reads::switch_cpus1.inst       250988                       # Number of read requests responded to by this memory
system.mem_ctrls.num_reads::switch_cpus1.data        90426                       # Number of read requests responded to by this memory
system.mem_ctrls.num_reads::switch_cpus2.dtb.walker         6779                       # Number of read requests responded to by this memory
system.mem_ctrls.num_reads::switch_cpus2.itb.walker          316                       # Number of read requests responded to by this memory
system.mem_ctrls.num_reads::switch_cpus2.inst       443708                       # Number of read requests responded to by this memory
system.mem_ctrls.num_reads::switch_cpus2.data       754448                       # Number of read requests responded to by this memory
system.mem_ctrls.num_reads::switch_cpus3.dtb.walker         2141                       # Number of read requests responded to by this memory
system.mem_ctrls.num_reads::switch_cpus3.itb.walker          635                       # Number of read requests responded to by this memory
system.mem_ctrls.num_reads::switch_cpus3.inst       663051                       # Number of read requests responded to by this memory
system.mem_ctrls.num_reads::switch_cpus3.data        78057                       # Number of read requests responded to by this memory
system.mem_ctrls.num_reads::total            13558338                       # Number of read requests responded to by this memory
system.mem_ctrls.num_writes::writebacks       8560864                       # Number of write requests responded to by this memory
system.mem_ctrls.num_writes::total            8560864                       # Number of write requests responded to by this memory
system.mem_ctrls.bw_read::l2.prefetcher     920287837                       # Total read bandwidth from this memory (bytes/s)
system.mem_ctrls.bw_read::switch_cpus0.dtb.walker      8921645                       # Total read bandwidth from this memory (bytes/s)
system.mem_ctrls.bw_read::switch_cpus0.itb.walker        43020                       # Total read bandwidth from this memory (bytes/s)
system.mem_ctrls.bw_read::switch_cpus0.inst     41551393                       # Total read bandwidth from this memory (bytes/s)
system.mem_ctrls.bw_read::switch_cpus0.data    458334602                       # Total read bandwidth from this memory (bytes/s)
system.mem_ctrls.bw_read::switch_cpus1.dtb.walker       563575                       # Total read bandwidth from this memory (bytes/s)
system.mem_ctrls.bw_read::switch_cpus1.itb.walker       211547                       # Total read bandwidth from this memory (bytes/s)
system.mem_ctrls.bw_read::switch_cpus1.inst     31851072                       # Total read bandwidth from this memory (bytes/s)
system.mem_ctrls.bw_read::switch_cpus1.data     11475310                       # Total read bandwidth from this memory (bytes/s)
system.mem_ctrls.bw_read::switch_cpus2.dtb.walker       860274                       # Total read bandwidth from this memory (bytes/s)
system.mem_ctrls.bw_read::switch_cpus2.itb.walker        40101                       # Total read bandwidth from this memory (bytes/s)
system.mem_ctrls.bw_read::switch_cpus2.inst     56307774                       # Total read bandwidth from this memory (bytes/s)
system.mem_ctrls.bw_read::switch_cpus2.data     95741540                       # Total read bandwidth from this memory (bytes/s)
system.mem_ctrls.bw_read::switch_cpus3.dtb.walker       271699                       # Total read bandwidth from this memory (bytes/s)
system.mem_ctrls.bw_read::switch_cpus3.itb.walker        80583                       # Total read bandwidth from this memory (bytes/s)
system.mem_ctrls.bw_read::switch_cpus3.inst     84143008                       # Total read bandwidth from this memory (bytes/s)
system.mem_ctrls.bw_read::switch_cpus3.data      9905649                       # Total read bandwidth from this memory (bytes/s)
system.mem_ctrls.bw_read::total            1720590630                       # Total read bandwidth from this memory (bytes/s)
system.mem_ctrls.bw_inst_read::switch_cpus0.inst     41551393                       # Instruction read bandwidth from this memory (bytes/s)
system.mem_ctrls.bw_inst_read::switch_cpus1.inst     31851072                       # Instruction read bandwidth from this memory (bytes/s)
system.mem_ctrls.bw_inst_read::switch_cpus2.inst     56307774                       # Instruction read bandwidth from this memory (bytes/s)
system.mem_ctrls.bw_inst_read::switch_cpus3.inst     84143008                       # Instruction read bandwidth from this memory (bytes/s)
system.mem_ctrls.bw_inst_read::total        213853246                       # Instruction read bandwidth from this memory (bytes/s)
system.mem_ctrls.bw_write::writebacks      1086397343                       # Write bandwidth from this memory (bytes/s)
system.mem_ctrls.bw_write::total           1086397343                       # Write bandwidth from this memory (bytes/s)
system.mem_ctrls.bw_total::writebacks      1086397343                       # Total bandwidth to/from this memory (bytes/s)
system.mem_ctrls.bw_total::l2.prefetcher    920287837                       # Total bandwidth to/from this memory (bytes/s)
system.mem_ctrls.bw_total::switch_cpus0.dtb.walker      8921645                       # Total bandwidth to/from this memory (bytes/s)
system.mem_ctrls.bw_total::switch_cpus0.itb.walker        43020                       # Total bandwidth to/from this memory (bytes/s)
system.mem_ctrls.bw_total::switch_cpus0.inst     41551393                       # Total bandwidth to/from this memory (bytes/s)
system.mem_ctrls.bw_total::switch_cpus0.data    458334602                       # Total bandwidth to/from this memory (bytes/s)
system.mem_ctrls.bw_total::switch_cpus1.dtb.walker       563575                       # Total bandwidth to/from this memory (bytes/s)
system.mem_ctrls.bw_total::switch_cpus1.itb.walker       211547                       # Total bandwidth to/from this memory (bytes/s)
system.mem_ctrls.bw_total::switch_cpus1.inst     31851072                       # Total bandwidth to/from this memory (bytes/s)
system.mem_ctrls.bw_total::switch_cpus1.data     11475310                       # Total bandwidth to/from this memory (bytes/s)
system.mem_ctrls.bw_total::switch_cpus2.dtb.walker       860274                       # Total bandwidth to/from this memory (bytes/s)
system.mem_ctrls.bw_total::switch_cpus2.itb.walker        40101                       # Total bandwidth to/from this memory (bytes/s)
system.mem_ctrls.bw_total::switch_cpus2.inst     56307774                       # Total bandwidth to/from this memory (bytes/s)
system.mem_ctrls.bw_total::switch_cpus2.data     95741540                       # Total bandwidth to/from this memory (bytes/s)
system.mem_ctrls.bw_total::switch_cpus3.dtb.walker       271699                       # Total bandwidth to/from this memory (bytes/s)
system.mem_ctrls.bw_total::switch_cpus3.itb.walker        80583                       # Total bandwidth to/from this memory (bytes/s)
system.mem_ctrls.bw_total::switch_cpus3.inst     84143008                       # Total bandwidth to/from this memory (bytes/s)
system.mem_ctrls.bw_total::switch_cpus3.data      9905649                       # Total bandwidth to/from this memory (bytes/s)
system.mem_ctrls.bw_total::total           2806987973                       # Total bandwidth to/from this memory (bytes/s)
system.mem_ctrls.readReqs                    13558337                       # Number of read requests accepted
system.mem_ctrls.writeReqs                    8560864                       # Number of write requests accepted
system.mem_ctrls.readBursts                  13558337                       # Number of DRAM read bursts, including those serviced by the write queue
system.mem_ctrls.writeBursts                  8560864                       # Number of DRAM write bursts, including those merged in the write queue
system.mem_ctrls.bytesReadDRAM              867369536                       # Total number of bytes read from DRAM
system.mem_ctrls.bytesReadWrQ                  364032                       # Total number of bytes read from write queue
system.mem_ctrls.bytesWritten               547893824                       # Total number of bytes written to DRAM
system.mem_ctrls.bytesReadSys               867733568                       # Total read bytes from the system interface side
system.mem_ctrls.bytesWrittenSys            547895296                       # Total written bytes from the system interface side
system.mem_ctrls.servicedByWrQ                   5688                       # Number of DRAM read bursts serviced by the write queue
system.mem_ctrls.mergedWrBursts                     3                       # Number of DRAM write bursts merged with an existing one
system.mem_ctrls.neitherReadNorWriteReqs            0                       # Number of requests that are neither read nor write
system.mem_ctrls.perBankRdBursts::0            776083                       # Per bank write bursts
system.mem_ctrls.perBankRdBursts::1            936311                       # Per bank write bursts
system.mem_ctrls.perBankRdBursts::2            857825                       # Per bank write bursts
system.mem_ctrls.perBankRdBursts::3            786105                       # Per bank write bursts
system.mem_ctrls.perBankRdBursts::4            770785                       # Per bank write bursts
system.mem_ctrls.perBankRdBursts::5            852590                       # Per bank write bursts
system.mem_ctrls.perBankRdBursts::6            854841                       # Per bank write bursts
system.mem_ctrls.perBankRdBursts::7            942384                       # Per bank write bursts
system.mem_ctrls.perBankRdBursts::8            867113                       # Per bank write bursts
system.mem_ctrls.perBankRdBursts::9            794707                       # Per bank write bursts
system.mem_ctrls.perBankRdBursts::10           750375                       # Per bank write bursts
system.mem_ctrls.perBankRdBursts::11           891356                       # Per bank write bursts
system.mem_ctrls.perBankRdBursts::12           733284                       # Per bank write bursts
system.mem_ctrls.perBankRdBursts::13           817261                       # Per bank write bursts
system.mem_ctrls.perBankRdBursts::14           923157                       # Per bank write bursts
system.mem_ctrls.perBankRdBursts::15           998472                       # Per bank write bursts
system.mem_ctrls.perBankWrBursts::0            539514                       # Per bank write bursts
system.mem_ctrls.perBankWrBursts::1            533806                       # Per bank write bursts
system.mem_ctrls.perBankWrBursts::2            531077                       # Per bank write bursts
system.mem_ctrls.perBankWrBursts::3            544641                       # Per bank write bursts
system.mem_ctrls.perBankWrBursts::4            525366                       # Per bank write bursts
system.mem_ctrls.perBankWrBursts::5            565416                       # Per bank write bursts
system.mem_ctrls.perBankWrBursts::6            551079                       # Per bank write bursts
system.mem_ctrls.perBankWrBursts::7            554681                       # Per bank write bursts
system.mem_ctrls.perBankWrBursts::8            522358                       # Per bank write bursts
system.mem_ctrls.perBankWrBursts::9            528435                       # Per bank write bursts
system.mem_ctrls.perBankWrBursts::10           521173                       # Per bank write bursts
system.mem_ctrls.perBankWrBursts::11           527068                       # Per bank write bursts
system.mem_ctrls.perBankWrBursts::12           535395                       # Per bank write bursts
system.mem_ctrls.perBankWrBursts::13           520691                       # Per bank write bursts
system.mem_ctrls.perBankWrBursts::14           534803                       # Per bank write bursts
system.mem_ctrls.perBankWrBursts::15           525338                       # Per bank write bursts
system.mem_ctrls.numRdRetry                         0                       # Number of times read queue was full causing retry
system.mem_ctrls.numWrRetry                      1286                       # Number of times write queue was full causing retry
system.mem_ctrls.totGap                  504323091000                       # Total gap between requests
system.mem_ctrls.readPktSize::0                     0                       # Read request sizes (log2)
system.mem_ctrls.readPktSize::1                     0                       # Read request sizes (log2)
system.mem_ctrls.readPktSize::2                     0                       # Read request sizes (log2)
system.mem_ctrls.readPktSize::3                     0                       # Read request sizes (log2)
system.mem_ctrls.readPktSize::4                     0                       # Read request sizes (log2)
system.mem_ctrls.readPktSize::5                     0                       # Read request sizes (log2)
system.mem_ctrls.readPktSize::6              13558337                       # Read request sizes (log2)
system.mem_ctrls.writePktSize::0                    0                       # Write request sizes (log2)
system.mem_ctrls.writePktSize::1                    0                       # Write request sizes (log2)
system.mem_ctrls.writePktSize::2                    0                       # Write request sizes (log2)
system.mem_ctrls.writePktSize::3                    0                       # Write request sizes (log2)
system.mem_ctrls.writePktSize::4                    0                       # Write request sizes (log2)
system.mem_ctrls.writePktSize::5                    0                       # Write request sizes (log2)
system.mem_ctrls.writePktSize::6              8560864                       # Write request sizes (log2)
system.mem_ctrls.rdQLenPdf::0                 2829184                       # What read queue length does an incoming req see
system.mem_ctrls.rdQLenPdf::1                 3351022                       # What read queue length does an incoming req see
system.mem_ctrls.rdQLenPdf::2                 1717413                       # What read queue length does an incoming req see
system.mem_ctrls.rdQLenPdf::3                 1245320                       # What read queue length does an incoming req see
system.mem_ctrls.rdQLenPdf::4                 1009452                       # What read queue length does an incoming req see
system.mem_ctrls.rdQLenPdf::5                  799984                       # What read queue length does an incoming req see
system.mem_ctrls.rdQLenPdf::6                  658450                       # What read queue length does an incoming req see
system.mem_ctrls.rdQLenPdf::7                  602675                       # What read queue length does an incoming req see
system.mem_ctrls.rdQLenPdf::8                  527076                       # What read queue length does an incoming req see
system.mem_ctrls.rdQLenPdf::9                  404959                       # What read queue length does an incoming req see
system.mem_ctrls.rdQLenPdf::10                 239347                       # What read queue length does an incoming req see
system.mem_ctrls.rdQLenPdf::11                 101662                       # What read queue length does an incoming req see
system.mem_ctrls.rdQLenPdf::12                  39659                       # What read queue length does an incoming req see
system.mem_ctrls.rdQLenPdf::13                  21072                       # What read queue length does an incoming req see
system.mem_ctrls.rdQLenPdf::14                   4315                       # What read queue length does an incoming req see
system.mem_ctrls.rdQLenPdf::15                   1059                       # What read queue length does an incoming req see
system.mem_ctrls.rdQLenPdf::16                      0                       # What read queue length does an incoming req see
system.mem_ctrls.rdQLenPdf::17                      0                       # What read queue length does an incoming req see
system.mem_ctrls.rdQLenPdf::18                      0                       # What read queue length does an incoming req see
system.mem_ctrls.rdQLenPdf::19                      0                       # What read queue length does an incoming req see
system.mem_ctrls.rdQLenPdf::20                      0                       # What read queue length does an incoming req see
system.mem_ctrls.rdQLenPdf::21                      0                       # What read queue length does an incoming req see
system.mem_ctrls.rdQLenPdf::22                      0                       # What read queue length does an incoming req see
system.mem_ctrls.rdQLenPdf::23                      0                       # What read queue length does an incoming req see
system.mem_ctrls.rdQLenPdf::24                      0                       # What read queue length does an incoming req see
system.mem_ctrls.rdQLenPdf::25                      0                       # What read queue length does an incoming req see
system.mem_ctrls.rdQLenPdf::26                      0                       # What read queue length does an incoming req see
system.mem_ctrls.rdQLenPdf::27                      0                       # What read queue length does an incoming req see
system.mem_ctrls.rdQLenPdf::28                      0                       # What read queue length does an incoming req see
system.mem_ctrls.rdQLenPdf::29                      0                       # What read queue length does an incoming req see
system.mem_ctrls.rdQLenPdf::30                      0                       # What read queue length does an incoming req see
system.mem_ctrls.rdQLenPdf::31                      0                       # What read queue length does an incoming req see
system.mem_ctrls.wrQLenPdf::0                       0                       # What write queue length does an incoming req see
system.mem_ctrls.wrQLenPdf::1                       1                       # What write queue length does an incoming req see
system.mem_ctrls.wrQLenPdf::2                       1                       # What write queue length does an incoming req see
system.mem_ctrls.wrQLenPdf::3                       1                       # What write queue length does an incoming req see
system.mem_ctrls.wrQLenPdf::4                       1                       # What write queue length does an incoming req see
system.mem_ctrls.wrQLenPdf::5                       1                       # What write queue length does an incoming req see
system.mem_ctrls.wrQLenPdf::6                       1                       # What write queue length does an incoming req see
system.mem_ctrls.wrQLenPdf::7                       1                       # What write queue length does an incoming req see
system.mem_ctrls.wrQLenPdf::8                       1                       # What write queue length does an incoming req see
system.mem_ctrls.wrQLenPdf::9                       1                       # What write queue length does an incoming req see
system.mem_ctrls.wrQLenPdf::10                      1                       # What write queue length does an incoming req see
system.mem_ctrls.wrQLenPdf::11                      1                       # What write queue length does an incoming req see
system.mem_ctrls.wrQLenPdf::12                      1                       # What write queue length does an incoming req see
system.mem_ctrls.wrQLenPdf::13                      1                       # What write queue length does an incoming req see
system.mem_ctrls.wrQLenPdf::14                      1                       # What write queue length does an incoming req see
system.mem_ctrls.wrQLenPdf::15                  11126                       # What write queue length does an incoming req see
system.mem_ctrls.wrQLenPdf::16                  14013                       # What write queue length does an incoming req see
system.mem_ctrls.wrQLenPdf::17                  72872                       # What write queue length does an incoming req see
system.mem_ctrls.wrQLenPdf::18                 127195                       # What write queue length does an incoming req see
system.mem_ctrls.wrQLenPdf::19                 174684                       # What write queue length does an incoming req see
system.mem_ctrls.wrQLenPdf::20                 231626                       # What write queue length does an incoming req see
system.mem_ctrls.wrQLenPdf::21                 316875                       # What write queue length does an incoming req see
system.mem_ctrls.wrQLenPdf::22                 384686                       # What write queue length does an incoming req see
system.mem_ctrls.wrQLenPdf::23                 443424                       # What write queue length does an incoming req see
system.mem_ctrls.wrQLenPdf::24                 495890                       # What write queue length does an incoming req see
system.mem_ctrls.wrQLenPdf::25                 544310                       # What write queue length does an incoming req see
system.mem_ctrls.wrQLenPdf::26                 594970                       # What write queue length does an incoming req see
system.mem_ctrls.wrQLenPdf::27                 646121                       # What write queue length does an incoming req see
system.mem_ctrls.wrQLenPdf::28                 706744                       # What write queue length does an incoming req see
system.mem_ctrls.wrQLenPdf::29                 790421                       # What write queue length does an incoming req see
system.mem_ctrls.wrQLenPdf::30                 820392                       # What write queue length does an incoming req see
system.mem_ctrls.wrQLenPdf::31                 813694                       # What write queue length does an incoming req see
system.mem_ctrls.wrQLenPdf::32                 727583                       # What write queue length does an incoming req see
system.mem_ctrls.wrQLenPdf::33                 158738                       # What write queue length does an incoming req see
system.mem_ctrls.wrQLenPdf::34                 102091                       # What write queue length does an incoming req see
system.mem_ctrls.wrQLenPdf::35                  68284                       # What write queue length does an incoming req see
system.mem_ctrls.wrQLenPdf::36                  48708                       # What write queue length does an incoming req see
system.mem_ctrls.wrQLenPdf::37                  35778                       # What write queue length does an incoming req see
system.mem_ctrls.wrQLenPdf::38                  26934                       # What write queue length does an incoming req see
system.mem_ctrls.wrQLenPdf::39                  21552                       # What write queue length does an incoming req see
system.mem_ctrls.wrQLenPdf::40                  17720                       # What write queue length does an incoming req see
system.mem_ctrls.wrQLenPdf::41                  14836                       # What write queue length does an incoming req see
system.mem_ctrls.wrQLenPdf::42                  12684                       # What write queue length does an incoming req see
system.mem_ctrls.wrQLenPdf::43                  10987                       # What write queue length does an incoming req see
system.mem_ctrls.wrQLenPdf::44                  10389                       # What write queue length does an incoming req see
system.mem_ctrls.wrQLenPdf::45                   9484                       # What write queue length does an incoming req see
system.mem_ctrls.wrQLenPdf::46                   8597                       # What write queue length does an incoming req see
system.mem_ctrls.wrQLenPdf::47                   7977                       # What write queue length does an incoming req see
system.mem_ctrls.wrQLenPdf::48                   7800                       # What write queue length does an incoming req see
system.mem_ctrls.wrQLenPdf::49                   7621                       # What write queue length does an incoming req see
system.mem_ctrls.wrQLenPdf::50                   7229                       # What write queue length does an incoming req see
system.mem_ctrls.wrQLenPdf::51                   7607                       # What write queue length does an incoming req see
system.mem_ctrls.wrQLenPdf::52                   7639                       # What write queue length does an incoming req see
system.mem_ctrls.wrQLenPdf::53                   7746                       # What write queue length does an incoming req see
system.mem_ctrls.wrQLenPdf::54                   7863                       # What write queue length does an incoming req see
system.mem_ctrls.wrQLenPdf::55                   7660                       # What write queue length does an incoming req see
system.mem_ctrls.wrQLenPdf::56                   5606                       # What write queue length does an incoming req see
system.mem_ctrls.wrQLenPdf::57                   4410                       # What write queue length does an incoming req see
system.mem_ctrls.wrQLenPdf::58                   3847                       # What write queue length does an incoming req see
system.mem_ctrls.wrQLenPdf::59                   3407                       # What write queue length does an incoming req see
system.mem_ctrls.wrQLenPdf::60                   2655                       # What write queue length does an incoming req see
system.mem_ctrls.wrQLenPdf::61                   2303                       # What write queue length does an incoming req see
system.mem_ctrls.wrQLenPdf::62                   2014                       # What write queue length does an incoming req see
system.mem_ctrls.wrQLenPdf::63                   4055                       # What write queue length does an incoming req see
system.mem_ctrls.bytesPerActivate::samples     10807912                       # Bytes accessed per row activation
system.mem_ctrls.bytesPerActivate::mean    130.947056                       # Bytes accessed per row activation
system.mem_ctrls.bytesPerActivate::gmean    90.518737                       # Bytes accessed per row activation
system.mem_ctrls.bytesPerActivate::stdev   179.663173                       # Bytes accessed per row activation
system.mem_ctrls.bytesPerActivate::0-127      7992260     73.95%     73.95% # Bytes accessed per row activation
system.mem_ctrls.bytesPerActivate::128-255      1610258     14.90%     88.85% # Bytes accessed per row activation
system.mem_ctrls.bytesPerActivate::256-383       421308      3.90%     92.75% # Bytes accessed per row activation
system.mem_ctrls.bytesPerActivate::384-511       182732      1.69%     94.44% # Bytes accessed per row activation
system.mem_ctrls.bytesPerActivate::512-639       192892      1.78%     96.22% # Bytes accessed per row activation
system.mem_ctrls.bytesPerActivate::640-767        87571      0.81%     97.03% # Bytes accessed per row activation
system.mem_ctrls.bytesPerActivate::768-895        53927      0.50%     97.53% # Bytes accessed per row activation
system.mem_ctrls.bytesPerActivate::896-1023        63201      0.58%     98.11% # Bytes accessed per row activation
system.mem_ctrls.bytesPerActivate::1024-1151       203763      1.89%    100.00% # Bytes accessed per row activation
system.mem_ctrls.bytesPerActivate::total     10807912                       # Bytes accessed per row activation
system.mem_ctrls.rdPerTurnAround::samples       531309                       # Reads before turning the bus around for writes
system.mem_ctrls.rdPerTurnAround::mean      25.546804                       # Reads before turning the bus around for writes
system.mem_ctrls.rdPerTurnAround::stdev     42.070905                       # Reads before turning the bus around for writes
system.mem_ctrls.rdPerTurnAround::0-1023       531301    100.00%    100.00% # Reads before turning the bus around for writes
system.mem_ctrls.rdPerTurnAround::1024-2047            7      0.00%    100.00% # Reads before turning the bus around for writes
system.mem_ctrls.rdPerTurnAround::27648-28671            1      0.00%    100.00% # Reads before turning the bus around for writes
system.mem_ctrls.rdPerTurnAround::total        531309                       # Reads before turning the bus around for writes
system.mem_ctrls.wrPerTurnAround::samples       531309                       # Writes before turning the bus around for reads
system.mem_ctrls.wrPerTurnAround::mean      16.112735                       # Writes before turning the bus around for reads
system.mem_ctrls.wrPerTurnAround::gmean     16.096786                       # Writes before turning the bus around for reads
system.mem_ctrls.wrPerTurnAround::stdev      0.899675                       # Writes before turning the bus around for reads
system.mem_ctrls.wrPerTurnAround::16-17        516093     97.14%     97.14% # Writes before turning the bus around for reads
system.mem_ctrls.wrPerTurnAround::18-19         10134      1.91%     99.04% # Writes before turning the bus around for reads
system.mem_ctrls.wrPerTurnAround::20-21          3110      0.59%     99.63% # Writes before turning the bus around for reads
system.mem_ctrls.wrPerTurnAround::22-23          1004      0.19%     99.82% # Writes before turning the bus around for reads
system.mem_ctrls.wrPerTurnAround::24-25           419      0.08%     99.90% # Writes before turning the bus around for reads
system.mem_ctrls.wrPerTurnAround::26-27           163      0.03%     99.93% # Writes before turning the bus around for reads
system.mem_ctrls.wrPerTurnAround::28-29           105      0.02%     99.95% # Writes before turning the bus around for reads
system.mem_ctrls.wrPerTurnAround::30-31            73      0.01%     99.96% # Writes before turning the bus around for reads
system.mem_ctrls.wrPerTurnAround::32-33            46      0.01%     99.97% # Writes before turning the bus around for reads
system.mem_ctrls.wrPerTurnAround::34-35            28      0.01%     99.97% # Writes before turning the bus around for reads
system.mem_ctrls.wrPerTurnAround::36-37            14      0.00%     99.98% # Writes before turning the bus around for reads
system.mem_ctrls.wrPerTurnAround::38-39            16      0.00%     99.98% # Writes before turning the bus around for reads
system.mem_ctrls.wrPerTurnAround::40-41            20      0.00%     99.98% # Writes before turning the bus around for reads
system.mem_ctrls.wrPerTurnAround::42-43             7      0.00%     99.99% # Writes before turning the bus around for reads
system.mem_ctrls.wrPerTurnAround::44-45            10      0.00%     99.99% # Writes before turning the bus around for reads
system.mem_ctrls.wrPerTurnAround::46-47             8      0.00%     99.99% # Writes before turning the bus around for reads
system.mem_ctrls.wrPerTurnAround::48-49             8      0.00%     99.99% # Writes before turning the bus around for reads
system.mem_ctrls.wrPerTurnAround::50-51             5      0.00%     99.99% # Writes before turning the bus around for reads
system.mem_ctrls.wrPerTurnAround::52-53             6      0.00%     99.99% # Writes before turning the bus around for reads
system.mem_ctrls.wrPerTurnAround::54-55             4      0.00%     99.99% # Writes before turning the bus around for reads
system.mem_ctrls.wrPerTurnAround::56-57             6      0.00%     99.99% # Writes before turning the bus around for reads
system.mem_ctrls.wrPerTurnAround::58-59             2      0.00%     99.99% # Writes before turning the bus around for reads
system.mem_ctrls.wrPerTurnAround::60-61             7      0.00%    100.00% # Writes before turning the bus around for reads
system.mem_ctrls.wrPerTurnAround::62-63             4      0.00%    100.00% # Writes before turning the bus around for reads
system.mem_ctrls.wrPerTurnAround::64-65             5      0.00%    100.00% # Writes before turning the bus around for reads
system.mem_ctrls.wrPerTurnAround::66-67             1      0.00%    100.00% # Writes before turning the bus around for reads
system.mem_ctrls.wrPerTurnAround::68-69             3      0.00%    100.00% # Writes before turning the bus around for reads
system.mem_ctrls.wrPerTurnAround::70-71             1      0.00%    100.00% # Writes before turning the bus around for reads
system.mem_ctrls.wrPerTurnAround::72-73             2      0.00%    100.00% # Writes before turning the bus around for reads
system.mem_ctrls.wrPerTurnAround::78-79             1      0.00%    100.00% # Writes before turning the bus around for reads
system.mem_ctrls.wrPerTurnAround::80-81             1      0.00%    100.00% # Writes before turning the bus around for reads
system.mem_ctrls.wrPerTurnAround::84-85             1      0.00%    100.00% # Writes before turning the bus around for reads
system.mem_ctrls.wrPerTurnAround::106-107            1      0.00%    100.00% # Writes before turning the bus around for reads
system.mem_ctrls.wrPerTurnAround::108-109            1      0.00%    100.00% # Writes before turning the bus around for reads
system.mem_ctrls.wrPerTurnAround::total        531309                       # Writes before turning the bus around for reads
system.mem_ctrls.totQLat                 1154369745769                       # Total ticks spent queuing
system.mem_ctrls.totMemAccLat            1408481914519                       # Total ticks spent from burst creation until serviced by the DRAM
system.mem_ctrls.totBusLat                67763245000                       # Total ticks spent in databus transfers
system.mem_ctrls.avgQLat                     85176.69                       # Average queueing delay per DRAM burst
system.mem_ctrls.avgBusLat                    5000.00                       # Average bus latency per DRAM burst
system.mem_ctrls.avgMemAccLat               103926.69                       # Average memory access latency per DRAM burst
system.mem_ctrls.avgRdBW                      1719.87                       # Average DRAM read bandwidth in MiByte/s
system.mem_ctrls.avgWrBW                      1086.39                       # Average achieved write bandwidth in MiByte/s
system.mem_ctrls.avgRdBWSys                   1720.59                       # Average system read bandwidth in MiByte/s
system.mem_ctrls.avgWrBWSys                   1086.40                       # Average system write bandwidth in MiByte/s
system.mem_ctrls.peakBW                      12800.00                       # Theoretical peak bandwidth in MiByte/s
system.mem_ctrls.busUtil                        21.92                       # Data bus utilization in percentage
system.mem_ctrls.busUtilRead                    13.44                       # Data bus utilization in percentage for reads
system.mem_ctrls.busUtilWrite                    8.49                       # Data bus utilization in percentage for writes
system.mem_ctrls.avgRdQLen                       3.80                       # Average read queue length when enqueuing
system.mem_ctrls.avgWrQLen                      27.58                       # Average write queue length when enqueuing
system.mem_ctrls.readRowHits                  8202012                       # Number of row buffer hits during reads
system.mem_ctrls.writeRowHits                 3103569                       # Number of row buffer hits during writes
system.mem_ctrls.readRowHitRate                 60.52                       # Row buffer hit rate for reads
system.mem_ctrls.writeRowHitRate                36.25                       # Row buffer hit rate for writes
system.mem_ctrls.avgGap                      22800.24                       # Average gap between requests
system.mem_ctrls.pageHitRate                    51.13                       # Row buffer hit rate, read and write combined
system.mem_ctrls_0.actEnergy              41515581240                       # Energy for activate commands per rank (pJ)
system.mem_ctrls_0.preEnergy              22652350875                       # Energy for precharge commands per rank (pJ)
system.mem_ctrls_0.readEnergy             52940581200                       # Energy for read commands per rank (pJ)
system.mem_ctrls_0.writeEnergy            28159274160                       # Energy for write commands per rank (pJ)
system.mem_ctrls_0.refreshEnergy          32985201600                       # Energy for refresh commands per rank (pJ)
system.mem_ctrls_0.actBackEnergy         339515298180                       # Energy for active background per rank (pJ)
system.mem_ctrls_0.preBackEnergy           5189424000                       # Energy for precharge background per rank (pJ)
system.mem_ctrls_0.totalEnergy           522957711255                       # Total energy per rank (pJ)
system.mem_ctrls_0.averagePower           1035.526124                       # Core power per rank (mW)
system.mem_ctrls_0.memoryStateTime::IDLE   6454642419                       # Time in different power states
system.mem_ctrls_0.memoryStateTime::REF   16840460000                       # Time in different power states
system.mem_ctrls_0.memoryStateTime::PRE_PDN            0                       # Time in different power states
system.mem_ctrls_0.memoryStateTime::ACT  481028693081                       # Time in different power states
system.mem_ctrls_0.memoryStateTime::ACT_PDN            0                       # Time in different power states
system.mem_ctrls_1.actEnergy              40246038000                       # Energy for activate commands per rank (pJ)
system.mem_ctrls_1.preEnergy              21959643750                       # Energy for precharge commands per rank (pJ)
system.mem_ctrls_1.readEnergy             52930293000                       # Energy for read commands per rank (pJ)
system.mem_ctrls_1.writeEnergy            27314768160                       # Energy for write commands per rank (pJ)
system.mem_ctrls_1.refreshEnergy          32985201600                       # Energy for refresh commands per rank (pJ)
system.mem_ctrls_1.actBackEnergy         340270998480                       # Energy for active background per rank (pJ)
system.mem_ctrls_1.preBackEnergy           4526529000                       # Energy for precharge background per rank (pJ)
system.mem_ctrls_1.totalEnergy           520233471990                       # Total energy per rank (pJ)
system.mem_ctrls_1.averagePower           1030.131766                       # Core power per rank (mW)
system.mem_ctrls_1.memoryStateTime::IDLE   5398560335                       # Time in different power states
system.mem_ctrls_1.memoryStateTime::REF   16840460000                       # Time in different power states
system.mem_ctrls_1.memoryStateTime::PRE_PDN            0                       # Time in different power states
system.mem_ctrls_1.memoryStateTime::ACT  482084178415                       # Time in different power states
system.mem_ctrls_1.memoryStateTime::ACT_PDN            0                       # Time in different power states
system.realview.nvmem.pwrStateResidencyTicks::UNDEFINED 3740867630500                       # Cumulative time (in ticks) in various power states
system.realview.vram.pwrStateResidencyTicks::UNDEFINED 3740867630500                       # Cumulative time (in ticks) in various power states
system.pwrStateResidencyTicks::UNDEFINED 3740867630500                       # Cumulative time (in ticks) in various power states
system.bridge.pwrStateResidencyTicks::UNDEFINED 3740867630500                       # Cumulative time (in ticks) in various power states
system.cf0.dma_read_full_pages                      0                       # Number of full page size DMA reads (not PRD).
system.cf0.dma_read_bytes                           0                       # Number of bytes transfered via DMA reads (not PRD).
system.cf0.dma_read_txs                             0                       # Number of DMA read transactions (not PRD).
system.cf0.dma_write_full_pages                  2334                       # Number of full page size DMA writes.
system.cf0.dma_write_bytes                    9636864                       # Number of bytes transfered via DMA writes.
system.cf0.dma_write_txs                         2404                       # Number of DMA write transactions.
system.cpu_voltage_domain.voltage                   1                       # Voltage in Volts
system.cpu_clk_domain.clock                       500                       # Clock period in ticks
system.cpu0.dstage2_mmu.stage2_tlb.walker.pwrStateResidencyTicks::UNDEFINED 3740867630500                       # Cumulative time (in ticks) in various power states
system.cpu0.dstage2_mmu.stage2_tlb.walker.walks            0                       # Table walker walks requested
system.cpu0.dstage2_mmu.stage2_tlb.walker.walkRequestOrigin_Requested::Data            0                       # Table walker requests started/completed, data/inst
system.cpu0.dstage2_mmu.stage2_tlb.walker.walkRequestOrigin_Requested::Inst            0                       # Table walker requests started/completed, data/inst
system.cpu0.dstage2_mmu.stage2_tlb.walker.walkRequestOrigin_Requested::total            0                       # Table walker requests started/completed, data/inst
system.cpu0.dstage2_mmu.stage2_tlb.walker.walkRequestOrigin_Completed::Data            0                       # Table walker requests started/completed, data/inst
system.cpu0.dstage2_mmu.stage2_tlb.walker.walkRequestOrigin_Completed::Inst            0                       # Table walker requests started/completed, data/inst
system.cpu0.dstage2_mmu.stage2_tlb.walker.walkRequestOrigin_Completed::total            0                       # Table walker requests started/completed, data/inst
system.cpu0.dstage2_mmu.stage2_tlb.walker.walkRequestOrigin::total            0                       # Table walker requests started/completed, data/inst
system.cpu0.dstage2_mmu.stage2_tlb.inst_hits            0                       # ITB inst hits
system.cpu0.dstage2_mmu.stage2_tlb.inst_misses            0                       # ITB inst misses
system.cpu0.dstage2_mmu.stage2_tlb.read_hits            0                       # DTB read hits
system.cpu0.dstage2_mmu.stage2_tlb.read_misses            0                       # DTB read misses
system.cpu0.dstage2_mmu.stage2_tlb.write_hits            0                       # DTB write hits
system.cpu0.dstage2_mmu.stage2_tlb.write_misses            0                       # DTB write misses
system.cpu0.dstage2_mmu.stage2_tlb.flush_tlb            0                       # Number of times complete TLB was flushed
system.cpu0.dstage2_mmu.stage2_tlb.flush_tlb_mva            0                       # Number of times TLB was flushed by MVA
system.cpu0.dstage2_mmu.stage2_tlb.flush_tlb_mva_asid            0                       # Number of times TLB was flushed by MVA & ASID
system.cpu0.dstage2_mmu.stage2_tlb.flush_tlb_asid            0                       # Number of times TLB was flushed by ASID
system.cpu0.dstage2_mmu.stage2_tlb.flush_entries            0                       # Number of entries that have been flushed from TLB
system.cpu0.dstage2_mmu.stage2_tlb.align_faults            0                       # Number of TLB faults due to alignment restrictions
system.cpu0.dstage2_mmu.stage2_tlb.prefetch_faults            0                       # Number of TLB faults due to prefetch
system.cpu0.dstage2_mmu.stage2_tlb.domain_faults            0                       # Number of TLB faults due to domain restrictions
system.cpu0.dstage2_mmu.stage2_tlb.perms_faults            0                       # Number of TLB faults due to permissions restrictions
system.cpu0.dstage2_mmu.stage2_tlb.read_accesses            0                       # DTB read accesses
system.cpu0.dstage2_mmu.stage2_tlb.write_accesses            0                       # DTB write accesses
system.cpu0.dstage2_mmu.stage2_tlb.inst_accesses            0                       # ITB inst accesses
system.cpu0.dstage2_mmu.stage2_tlb.hits             0                       # DTB hits
system.cpu0.dstage2_mmu.stage2_tlb.misses            0                       # DTB misses
system.cpu0.dstage2_mmu.stage2_tlb.accesses            0                       # DTB accesses
system.cpu0.dtb.walker.pwrStateResidencyTicks::UNDEFINED 3740867630500                       # Cumulative time (in ticks) in various power states
system.cpu0.dtb.walker.walks                        0                       # Table walker walks requested
system.cpu0.dtb.walker.walkRequestOrigin_Requested::Data            0                       # Table walker requests started/completed, data/inst
system.cpu0.dtb.walker.walkRequestOrigin_Requested::Inst            0                       # Table walker requests started/completed, data/inst
system.cpu0.dtb.walker.walkRequestOrigin_Requested::total            0                       # Table walker requests started/completed, data/inst
system.cpu0.dtb.walker.walkRequestOrigin_Completed::Data            0                       # Table walker requests started/completed, data/inst
system.cpu0.dtb.walker.walkRequestOrigin_Completed::Inst            0                       # Table walker requests started/completed, data/inst
system.cpu0.dtb.walker.walkRequestOrigin_Completed::total            0                       # Table walker requests started/completed, data/inst
system.cpu0.dtb.walker.walkRequestOrigin::total            0                       # Table walker requests started/completed, data/inst
system.cpu0.dtb.inst_hits                           0                       # ITB inst hits
system.cpu0.dtb.inst_misses                         0                       # ITB inst misses
system.cpu0.dtb.read_hits                           0                       # DTB read hits
system.cpu0.dtb.read_misses                         0                       # DTB read misses
system.cpu0.dtb.write_hits                          0                       # DTB write hits
system.cpu0.dtb.write_misses                        0                       # DTB write misses
system.cpu0.dtb.flush_tlb                           0                       # Number of times complete TLB was flushed
system.cpu0.dtb.flush_tlb_mva                       0                       # Number of times TLB was flushed by MVA
system.cpu0.dtb.flush_tlb_mva_asid                  0                       # Number of times TLB was flushed by MVA & ASID
system.cpu0.dtb.flush_tlb_asid                      0                       # Number of times TLB was flushed by ASID
system.cpu0.dtb.flush_entries                       0                       # Number of entries that have been flushed from TLB
system.cpu0.dtb.align_faults                        0                       # Number of TLB faults due to alignment restrictions
system.cpu0.dtb.prefetch_faults                     0                       # Number of TLB faults due to prefetch
system.cpu0.dtb.domain_faults                       0                       # Number of TLB faults due to domain restrictions
system.cpu0.dtb.perms_faults                        0                       # Number of TLB faults due to permissions restrictions
system.cpu0.dtb.read_accesses                       0                       # DTB read accesses
system.cpu0.dtb.write_accesses                      0                       # DTB write accesses
system.cpu0.dtb.inst_accesses                       0                       # ITB inst accesses
system.cpu0.dtb.hits                                0                       # DTB hits
system.cpu0.dtb.misses                              0                       # DTB misses
system.cpu0.dtb.accesses                            0                       # DTB accesses
system.cpu0.istage2_mmu.stage2_tlb.walker.pwrStateResidencyTicks::UNDEFINED 3740867630500                       # Cumulative time (in ticks) in various power states
system.cpu0.istage2_mmu.stage2_tlb.walker.walks            0                       # Table walker walks requested
system.cpu0.istage2_mmu.stage2_tlb.walker.walkRequestOrigin_Requested::Data            0                       # Table walker requests started/completed, data/inst
system.cpu0.istage2_mmu.stage2_tlb.walker.walkRequestOrigin_Requested::Inst            0                       # Table walker requests started/completed, data/inst
system.cpu0.istage2_mmu.stage2_tlb.walker.walkRequestOrigin_Requested::total            0                       # Table walker requests started/completed, data/inst
system.cpu0.istage2_mmu.stage2_tlb.walker.walkRequestOrigin_Completed::Data            0                       # Table walker requests started/completed, data/inst
system.cpu0.istage2_mmu.stage2_tlb.walker.walkRequestOrigin_Completed::Inst            0                       # Table walker requests started/completed, data/inst
system.cpu0.istage2_mmu.stage2_tlb.walker.walkRequestOrigin_Completed::total            0                       # Table walker requests started/completed, data/inst
system.cpu0.istage2_mmu.stage2_tlb.walker.walkRequestOrigin::total            0                       # Table walker requests started/completed, data/inst
system.cpu0.istage2_mmu.stage2_tlb.inst_hits            0                       # ITB inst hits
system.cpu0.istage2_mmu.stage2_tlb.inst_misses            0                       # ITB inst misses
system.cpu0.istage2_mmu.stage2_tlb.read_hits            0                       # DTB read hits
system.cpu0.istage2_mmu.stage2_tlb.read_misses            0                       # DTB read misses
system.cpu0.istage2_mmu.stage2_tlb.write_hits            0                       # DTB write hits
system.cpu0.istage2_mmu.stage2_tlb.write_misses            0                       # DTB write misses
system.cpu0.istage2_mmu.stage2_tlb.flush_tlb            0                       # Number of times complete TLB was flushed
system.cpu0.istage2_mmu.stage2_tlb.flush_tlb_mva            0                       # Number of times TLB was flushed by MVA
system.cpu0.istage2_mmu.stage2_tlb.flush_tlb_mva_asid            0                       # Number of times TLB was flushed by MVA & ASID
system.cpu0.istage2_mmu.stage2_tlb.flush_tlb_asid            0                       # Number of times TLB was flushed by ASID
system.cpu0.istage2_mmu.stage2_tlb.flush_entries            0                       # Number of entries that have been flushed from TLB
system.cpu0.istage2_mmu.stage2_tlb.align_faults            0                       # Number of TLB faults due to alignment restrictions
system.cpu0.istage2_mmu.stage2_tlb.prefetch_faults            0                       # Number of TLB faults due to prefetch
system.cpu0.istage2_mmu.stage2_tlb.domain_faults            0                       # Number of TLB faults due to domain restrictions
system.cpu0.istage2_mmu.stage2_tlb.perms_faults            0                       # Number of TLB faults due to permissions restrictions
system.cpu0.istage2_mmu.stage2_tlb.read_accesses            0                       # DTB read accesses
system.cpu0.istage2_mmu.stage2_tlb.write_accesses            0                       # DTB write accesses
system.cpu0.istage2_mmu.stage2_tlb.inst_accesses            0                       # ITB inst accesses
system.cpu0.istage2_mmu.stage2_tlb.hits             0                       # DTB hits
system.cpu0.istage2_mmu.stage2_tlb.misses            0                       # DTB misses
system.cpu0.istage2_mmu.stage2_tlb.accesses            0                       # DTB accesses
system.cpu0.itb.walker.pwrStateResidencyTicks::UNDEFINED 3740867630500                       # Cumulative time (in ticks) in various power states
system.cpu0.itb.walker.walks                        0                       # Table walker walks requested
system.cpu0.itb.walker.walkRequestOrigin_Requested::Data            0                       # Table walker requests started/completed, data/inst
system.cpu0.itb.walker.walkRequestOrigin_Requested::Inst            0                       # Table walker requests started/completed, data/inst
system.cpu0.itb.walker.walkRequestOrigin_Requested::total            0                       # Table walker requests started/completed, data/inst
system.cpu0.itb.walker.walkRequestOrigin_Completed::Data            0                       # Table walker requests started/completed, data/inst
system.cpu0.itb.walker.walkRequestOrigin_Completed::Inst            0                       # Table walker requests started/completed, data/inst
system.cpu0.itb.walker.walkRequestOrigin_Completed::total            0                       # Table walker requests started/completed, data/inst
system.cpu0.itb.walker.walkRequestOrigin::total            0                       # Table walker requests started/completed, data/inst
system.cpu0.itb.inst_hits                           0                       # ITB inst hits
system.cpu0.itb.inst_misses                         0                       # ITB inst misses
system.cpu0.itb.read_hits                           0                       # DTB read hits
system.cpu0.itb.read_misses                         0                       # DTB read misses
system.cpu0.itb.write_hits                          0                       # DTB write hits
system.cpu0.itb.write_misses                        0                       # DTB write misses
system.cpu0.itb.flush_tlb                           0                       # Number of times complete TLB was flushed
system.cpu0.itb.flush_tlb_mva                       0                       # Number of times TLB was flushed by MVA
system.cpu0.itb.flush_tlb_mva_asid                  0                       # Number of times TLB was flushed by MVA & ASID
system.cpu0.itb.flush_tlb_asid                      0                       # Number of times TLB was flushed by ASID
system.cpu0.itb.flush_entries                       0                       # Number of entries that have been flushed from TLB
system.cpu0.itb.align_faults                        0                       # Number of TLB faults due to alignment restrictions
system.cpu0.itb.prefetch_faults                     0                       # Number of TLB faults due to prefetch
system.cpu0.itb.domain_faults                       0                       # Number of TLB faults due to domain restrictions
system.cpu0.itb.perms_faults                        0                       # Number of TLB faults due to permissions restrictions
system.cpu0.itb.read_accesses                       0                       # DTB read accesses
system.cpu0.itb.write_accesses                      0                       # DTB write accesses
system.cpu0.itb.inst_accesses                       0                       # ITB inst accesses
system.cpu0.itb.hits                                0                       # DTB hits
system.cpu0.itb.misses                              0                       # DTB misses
system.cpu0.itb.accesses                            0                       # DTB accesses
system.cpu0.pwrStateResidencyTicks::ON   505020435000                       # Cumulative time (in ticks) in various power states
system.cpu0.numCycles                               0                       # number of cpu cycles simulated
system.cpu0.numWorkItemsStarted                     0                       # number of work items this cpu started
system.cpu0.numWorkItemsCompleted                   0                       # number of work items this cpu completed
system.cpu0.kern.inst.arm                           0                       # number of arm instructions executed
system.cpu0.kern.inst.quiesce                     289                       # number of quiesce instructions executed
system.cpu0.committedInsts                          0                       # Number of instructions committed
system.cpu0.committedOps                            0                       # Number of ops (including micro ops) committed
system.cpu0.num_int_alu_accesses                    0                       # Number of integer alu accesses
system.cpu0.num_fp_alu_accesses                     0                       # Number of float alu accesses
system.cpu0.num_func_calls                          0                       # number of times a function call or return occured
system.cpu0.num_conditional_control_insts            0                       # number of instructions that are conditional controls
system.cpu0.num_int_insts                           0                       # number of integer instructions
system.cpu0.num_fp_insts                            0                       # number of float instructions
system.cpu0.num_int_register_reads                  0                       # number of times the integer registers were read
system.cpu0.num_int_register_writes                 0                       # number of times the integer registers were written
system.cpu0.num_fp_register_reads                   0                       # number of times the floating registers were read
system.cpu0.num_fp_register_writes                  0                       # number of times the floating registers were written
system.cpu0.num_mem_refs                            0                       # number of memory refs
system.cpu0.num_load_insts                          0                       # Number of load instructions
system.cpu0.num_store_insts                         0                       # Number of store instructions
system.cpu0.num_idle_cycles                         0                       # Number of idle cycles
system.cpu0.num_busy_cycles                         0                       # Number of busy cycles
system.cpu0.not_idle_fraction                       0                       # Percentage of non-idle cycles
system.cpu0.idle_fraction                           1                       # Percentage of idle cycles
system.cpu0.op_class::No_OpClass                    0                       # Class of executed instruction
system.cpu0.op_class::IntAlu                        0                       # Class of executed instruction
system.cpu0.op_class::IntMult                       0                       # Class of executed instruction
system.cpu0.op_class::IntDiv                        0                       # Class of executed instruction
system.cpu0.op_class::FloatAdd                      0                       # Class of executed instruction
system.cpu0.op_class::FloatCmp                      0                       # Class of executed instruction
system.cpu0.op_class::FloatCvt                      0                       # Class of executed instruction
system.cpu0.op_class::FloatMult                     0                       # Class of executed instruction
system.cpu0.op_class::FloatDiv                      0                       # Class of executed instruction
system.cpu0.op_class::FloatSqrt                     0                       # Class of executed instruction
system.cpu0.op_class::SimdAdd                       0                       # Class of executed instruction
system.cpu0.op_class::SimdAddAcc                    0                       # Class of executed instruction
system.cpu0.op_class::SimdAlu                       0                       # Class of executed instruction
system.cpu0.op_class::SimdCmp                       0                       # Class of executed instruction
system.cpu0.op_class::SimdCvt                       0                       # Class of executed instruction
system.cpu0.op_class::SimdMisc                      0                       # Class of executed instruction
system.cpu0.op_class::SimdMult                      0                       # Class of executed instruction
system.cpu0.op_class::SimdMultAcc                   0                       # Class of executed instruction
system.cpu0.op_class::SimdShift                     0                       # Class of executed instruction
system.cpu0.op_class::SimdShiftAcc                  0                       # Class of executed instruction
system.cpu0.op_class::SimdSqrt                      0                       # Class of executed instruction
system.cpu0.op_class::SimdFloatAdd                  0                       # Class of executed instruction
system.cpu0.op_class::SimdFloatAlu                  0                       # Class of executed instruction
system.cpu0.op_class::SimdFloatCmp                  0                       # Class of executed instruction
system.cpu0.op_class::SimdFloatCvt                  0                       # Class of executed instruction
system.cpu0.op_class::SimdFloatDiv                  0                       # Class of executed instruction
system.cpu0.op_class::SimdFloatMisc                 0                       # Class of executed instruction
system.cpu0.op_class::SimdFloatMult                 0                       # Class of executed instruction
system.cpu0.op_class::SimdFloatMultAcc              0                       # Class of executed instruction
system.cpu0.op_class::SimdFloatSqrt                 0                       # Class of executed instruction
system.cpu0.op_class::MemRead                       0                       # Class of executed instruction
system.cpu0.op_class::MemWrite                      0                       # Class of executed instruction
system.cpu0.op_class::IprAccess                     0                       # Class of executed instruction
system.cpu0.op_class::InstPrefetch                  0                       # Class of executed instruction
system.cpu0.op_class::total                         0                       # Class of executed instruction
system.cpu0.dcache.tags.pwrStateResidencyTicks::UNDEFINED 3740867630500                       # Cumulative time (in ticks) in various power states
system.cpu0.dcache.tags.replacements         11312046                       # number of replacements
system.cpu0.dcache.tags.tagsinuse         1021.393171                       # Cycle average of tags in use
system.cpu0.dcache.tags.total_refs          140853236                       # Total number of references to valid blocks.
system.cpu0.dcache.tags.sampled_refs         11313044                       # Sample count of references to valid blocks.
system.cpu0.dcache.tags.avg_refs            12.450516                       # Average number of references to valid blocks.
system.cpu0.dcache.tags.warmup_cycle     3237895579500                       # Cycle when the warmup percentage was hit.
system.cpu0.dcache.tags.occ_blocks::switch_cpus0.data  1021.393171                       # Average occupied blocks per requestor
system.cpu0.dcache.tags.occ_percent::switch_cpus0.data     0.997454                       # Average percentage of cache occupancy
system.cpu0.dcache.tags.occ_percent::total     0.997454                       # Average percentage of cache occupancy
system.cpu0.dcache.tags.occ_task_id_blocks::1024          998                       # Occupied blocks per task id
system.cpu0.dcache.tags.age_task_id_blocks_1024::0           97                       # Occupied blocks per task id
system.cpu0.dcache.tags.age_task_id_blocks_1024::1          539                       # Occupied blocks per task id
system.cpu0.dcache.tags.age_task_id_blocks_1024::2          362                       # Occupied blocks per task id
system.cpu0.dcache.tags.occ_task_id_percent::1024     0.974609                       # Percentage of cache occupancy per task id
system.cpu0.dcache.tags.tag_accesses        344191895                       # Number of tag accesses
system.cpu0.dcache.tags.data_accesses       344191895                       # Number of data accesses
system.cpu0.dcache.pwrStateResidencyTicks::UNDEFINED 3740867630500                       # Cumulative time (in ticks) in various power states
system.cpu0.dcache.ReadReq_hits::switch_cpus0.data     94838489                       # number of ReadReq hits
system.cpu0.dcache.ReadReq_hits::total       94838489                       # number of ReadReq hits
system.cpu0.dcache.WriteReq_hits::switch_cpus0.data     45469724                       # number of WriteReq hits
system.cpu0.dcache.WriteReq_hits::total      45469724                       # number of WriteReq hits
system.cpu0.dcache.SoftPFReq_hits::switch_cpus0.data        39751                       # number of SoftPFReq hits
system.cpu0.dcache.SoftPFReq_hits::total        39751                       # number of SoftPFReq hits
system.cpu0.dcache.LoadLockedReq_hits::switch_cpus0.data       231992                       # number of LoadLockedReq hits
system.cpu0.dcache.LoadLockedReq_hits::total       231992                       # number of LoadLockedReq hits
system.cpu0.dcache.StoreCondReq_hits::switch_cpus0.data       231094                       # number of StoreCondReq hits
system.cpu0.dcache.StoreCondReq_hits::total       231094                       # number of StoreCondReq hits
system.cpu0.dcache.demand_hits::switch_cpus0.data    140308213                       # number of demand (read+write) hits
system.cpu0.dcache.demand_hits::total       140308213                       # number of demand (read+write) hits
system.cpu0.dcache.overall_hits::switch_cpus0.data    140347964                       # number of overall hits
system.cpu0.dcache.overall_hits::total      140347964                       # number of overall hits
system.cpu0.dcache.ReadReq_misses::switch_cpus0.data     24323484                       # number of ReadReq misses
system.cpu0.dcache.ReadReq_misses::total     24323484                       # number of ReadReq misses
system.cpu0.dcache.WriteReq_misses::switch_cpus0.data      1239751                       # number of WriteReq misses
system.cpu0.dcache.WriteReq_misses::total      1239751                       # number of WriteReq misses
system.cpu0.dcache.SoftPFReq_misses::switch_cpus0.data        51811                       # number of SoftPFReq misses
system.cpu0.dcache.SoftPFReq_misses::total        51811                       # number of SoftPFReq misses
system.cpu0.dcache.LoadLockedReq_misses::switch_cpus0.data         4293                       # number of LoadLockedReq misses
system.cpu0.dcache.LoadLockedReq_misses::total         4293                       # number of LoadLockedReq misses
system.cpu0.dcache.StoreCondReq_misses::switch_cpus0.data         4304                       # number of StoreCondReq misses
system.cpu0.dcache.StoreCondReq_misses::total         4304                       # number of StoreCondReq misses
system.cpu0.dcache.demand_misses::switch_cpus0.data     25563235                       # number of demand (read+write) misses
system.cpu0.dcache.demand_misses::total      25563235                       # number of demand (read+write) misses
system.cpu0.dcache.overall_misses::switch_cpus0.data     25615046                       # number of overall misses
system.cpu0.dcache.overall_misses::total     25615046                       # number of overall misses
system.cpu0.dcache.ReadReq_miss_latency::switch_cpus0.data 1252049673000                       # number of ReadReq miss cycles
system.cpu0.dcache.ReadReq_miss_latency::total 1252049673000                       # number of ReadReq miss cycles
system.cpu0.dcache.WriteReq_miss_latency::switch_cpus0.data  29394830507                       # number of WriteReq miss cycles
system.cpu0.dcache.WriteReq_miss_latency::total  29394830507                       # number of WriteReq miss cycles
system.cpu0.dcache.LoadLockedReq_miss_latency::switch_cpus0.data    152293000                       # number of LoadLockedReq miss cycles
system.cpu0.dcache.LoadLockedReq_miss_latency::total    152293000                       # number of LoadLockedReq miss cycles
system.cpu0.dcache.StoreCondReq_miss_latency::switch_cpus0.data     27549500                       # number of StoreCondReq miss cycles
system.cpu0.dcache.StoreCondReq_miss_latency::total     27549500                       # number of StoreCondReq miss cycles
system.cpu0.dcache.StoreCondFailReq_miss_latency::switch_cpus0.data         6000                       # number of StoreCondFailReq miss cycles
system.cpu0.dcache.StoreCondFailReq_miss_latency::total         6000                       # number of StoreCondFailReq miss cycles
system.cpu0.dcache.demand_miss_latency::switch_cpus0.data 1281444503507                       # number of demand (read+write) miss cycles
system.cpu0.dcache.demand_miss_latency::total 1281444503507                       # number of demand (read+write) miss cycles
system.cpu0.dcache.overall_miss_latency::switch_cpus0.data 1281444503507                       # number of overall miss cycles
system.cpu0.dcache.overall_miss_latency::total 1281444503507                       # number of overall miss cycles
system.cpu0.dcache.ReadReq_accesses::switch_cpus0.data    119161973                       # number of ReadReq accesses(hits+misses)
system.cpu0.dcache.ReadReq_accesses::total    119161973                       # number of ReadReq accesses(hits+misses)
system.cpu0.dcache.WriteReq_accesses::switch_cpus0.data     46709475                       # number of WriteReq accesses(hits+misses)
system.cpu0.dcache.WriteReq_accesses::total     46709475                       # number of WriteReq accesses(hits+misses)
system.cpu0.dcache.SoftPFReq_accesses::switch_cpus0.data        91562                       # number of SoftPFReq accesses(hits+misses)
system.cpu0.dcache.SoftPFReq_accesses::total        91562                       # number of SoftPFReq accesses(hits+misses)
system.cpu0.dcache.LoadLockedReq_accesses::switch_cpus0.data       236285                       # number of LoadLockedReq accesses(hits+misses)
system.cpu0.dcache.LoadLockedReq_accesses::total       236285                       # number of LoadLockedReq accesses(hits+misses)
system.cpu0.dcache.StoreCondReq_accesses::switch_cpus0.data       235398                       # number of StoreCondReq accesses(hits+misses)
system.cpu0.dcache.StoreCondReq_accesses::total       235398                       # number of StoreCondReq accesses(hits+misses)
system.cpu0.dcache.demand_accesses::switch_cpus0.data    165871448                       # number of demand (read+write) accesses
system.cpu0.dcache.demand_accesses::total    165871448                       # number of demand (read+write) accesses
system.cpu0.dcache.overall_accesses::switch_cpus0.data    165963010                       # number of overall (read+write) accesses
system.cpu0.dcache.overall_accesses::total    165963010                       # number of overall (read+write) accesses
system.cpu0.dcache.ReadReq_miss_rate::switch_cpus0.data     0.204121                       # miss rate for ReadReq accesses
system.cpu0.dcache.ReadReq_miss_rate::total     0.204121                       # miss rate for ReadReq accesses
system.cpu0.dcache.WriteReq_miss_rate::switch_cpus0.data     0.026542                       # miss rate for WriteReq accesses
system.cpu0.dcache.WriteReq_miss_rate::total     0.026542                       # miss rate for WriteReq accesses
system.cpu0.dcache.SoftPFReq_miss_rate::switch_cpus0.data     0.565857                       # miss rate for SoftPFReq accesses
system.cpu0.dcache.SoftPFReq_miss_rate::total     0.565857                       # miss rate for SoftPFReq accesses
system.cpu0.dcache.LoadLockedReq_miss_rate::switch_cpus0.data     0.018169                       # miss rate for LoadLockedReq accesses
system.cpu0.dcache.LoadLockedReq_miss_rate::total     0.018169                       # miss rate for LoadLockedReq accesses
system.cpu0.dcache.StoreCondReq_miss_rate::switch_cpus0.data     0.018284                       # miss rate for StoreCondReq accesses
system.cpu0.dcache.StoreCondReq_miss_rate::total     0.018284                       # miss rate for StoreCondReq accesses
system.cpu0.dcache.demand_miss_rate::switch_cpus0.data     0.154115                       # miss rate for demand accesses
system.cpu0.dcache.demand_miss_rate::total     0.154115                       # miss rate for demand accesses
system.cpu0.dcache.overall_miss_rate::switch_cpus0.data     0.154342                       # miss rate for overall accesses
system.cpu0.dcache.overall_miss_rate::total     0.154342                       # miss rate for overall accesses
system.cpu0.dcache.ReadReq_avg_miss_latency::switch_cpus0.data 51474.931511                       # average ReadReq miss latency
system.cpu0.dcache.ReadReq_avg_miss_latency::total 51474.931511                       # average ReadReq miss latency
system.cpu0.dcache.WriteReq_avg_miss_latency::switch_cpus0.data 23710.269649                       # average WriteReq miss latency
system.cpu0.dcache.WriteReq_avg_miss_latency::total 23710.269649                       # average WriteReq miss latency
system.cpu0.dcache.LoadLockedReq_avg_miss_latency::switch_cpus0.data 35474.726299                       # average LoadLockedReq miss latency
system.cpu0.dcache.LoadLockedReq_avg_miss_latency::total 35474.726299                       # average LoadLockedReq miss latency
system.cpu0.dcache.StoreCondReq_avg_miss_latency::switch_cpus0.data  6400.906134                       # average StoreCondReq miss latency
system.cpu0.dcache.StoreCondReq_avg_miss_latency::total  6400.906134                       # average StoreCondReq miss latency
system.cpu0.dcache.StoreCondFailReq_avg_miss_latency::switch_cpus0.data          inf                       # average StoreCondFailReq miss latency
system.cpu0.dcache.StoreCondFailReq_avg_miss_latency::total          inf                       # average StoreCondFailReq miss latency
system.cpu0.dcache.demand_avg_miss_latency::switch_cpus0.data 50128.416983                       # average overall miss latency
[...]
system.switch_cpus3.commit.op_class_0::SimdFloatCmp            5      0.00%     64.73% # Class of committed instruction
system.switch_cpus3.commit.op_class_0::SimdFloatCvt            4      0.00%     64.73% # Class of committed instruction
system.switch_cpus3.commit.op_class_0::SimdFloatDiv            0      0.00%     64.73% # Class of committed instruction
system.switch_cpus3.commit.op_class_0::SimdFloatMisc          768      0.00%     64.73% # Class of committed instruction
system.switch_cpus3.commit.op_class_0::SimdFloatMult            2      0.00%     64.73% # Class of committed instruction
system.switch_cpus3.commit.op_class_0::SimdFloatMultAcc            0      0.00%     64.73% # Class of committed instruction
system.switch_cpus3.commit.op_class_0::SimdFloatSqrt            0      0.00%     64.73% # Class of committed instruction
system.switch_cpus3.commit.op_class_0::MemRead    178421437     17.77%     82.49% # Class of committed instruction
system.switch_cpus3.commit.op_class_0::MemWrite    175806340     17.51%    100.00% # Class of committed instruction
system.switch_cpus3.commit.op_class_0::IprAccess            0      0.00%    100.00% # Class of committed instruction
system.switch_cpus3.commit.op_class_0::InstPrefetch            0      0.00%    100.00% # Class of committed instruction
system.switch_cpus3.commit.op_class_0::total   1004303711                       # Class of committed instruction
system.switch_cpus3.commit.bw_lim_events     18856175                       # number cycles where commit BW limit reached
system.switch_cpus3.rob.rob_reads          2021895125                       # The number of ROB reads
system.switch_cpus3.rob.rob_writes         2391689446                       # The number of ROB writes
system.switch_cpus3.timesIdled                 698111                       # Number of times that the entire CPU went into an idle state and unscheduled itself
system.switch_cpus3.idleCycles              105848668                       # Total number of cycles that the CPU has spent unscheduled due to idling
system.switch_cpus3.quiesceCycles             8803687                       # Total number of cycles that CPU has spent quiesced or waiting for an interrupt
system.switch_cpus3.committedInsts          806694623                       # Number of Instructions Simulated
system.switch_cpus3.committedOps           1004260771                       # Number of Ops (including micro ops) Simulated
system.switch_cpus3.cpi                      1.239431                       # CPI: Cycles Per Instruction
system.switch_cpus3.cpi_total                1.239431                       # CPI: Total CPI of All Threads
system.switch_cpus3.ipc                      0.806822                       # IPC: Instructions Per Cycle
system.switch_cpus3.ipc_total                0.806822                       # IPC: Total IPC of All Threads
system.switch_cpus3.int_regfile_reads      1235845404                       # number of integer regfile reads
system.switch_cpus3.int_regfile_writes      639441487                       # number of integer regfile writes
system.switch_cpus3.fp_regfile_reads             3864                       # number of floating regfile reads
system.switch_cpus3.fp_regfile_writes            2302                       # number of floating regfile writes
system.switch_cpus3.cc_regfile_reads       3831059573                       # number of cc regfile reads
system.switch_cpus3.cc_regfile_writes       637791598                       # number of cc regfile writes
system.switch_cpus3.misc_regfile_reads     2117460478                       # number of misc regfile reads
system.switch_cpus3.misc_regfile_writes       3446957                       # number of misc regfile writes
system.tol2bus.snoop_filter.tot_requests     63320160                       # Total number of requests made to the snoop filter.
system.tol2bus.snoop_filter.hit_single_requests     31321688                       # Number of requests hitting in the snoop filter with a single holder of the requested data.
system.tol2bus.snoop_filter.hit_multi_requests      2120045                       # Number of requests hitting in the snoop filter with multiple (>1) holders of the requested data.
system.tol2bus.snoop_filter.tot_snoops         133568                       # Total number of snoops made to the snoop filter.
system.tol2bus.snoop_filter.hit_single_snoops       122821                       # Number of snoops hitting in the snoop filter with a single holder of the requested data.
system.tol2bus.snoop_filter.hit_multi_snoops        10747                       # Number of snoops hitting in the snoop filter with multiple (>1) holders of the requested data.
system.tol2bus.pwrStateResidencyTicks::UNDEFINED 3740867630500                       # Cumulative time (in ticks) in various power states
system.tol2bus.trans_dist::ReadReq               4508                       # Transaction distribution
system.tol2bus.trans_dist::ReadResp          24315867                       # Transaction distribution
system.tol2bus.trans_dist::WriteReq              5422                       # Transaction distribution
system.tol2bus.trans_dist::WriteResp             5422                       # Transaction distribution
system.tol2bus.trans_dist::WritebackDirty     19900189                       # Transaction distribution
system.tol2bus.trans_dist::WritebackClean     20007312                       # Transaction distribution
system.tol2bus.trans_dist::CleanEvict         3531005                       # Transaction distribution
system.tol2bus.trans_dist::HardPFReq         10098265                       # Transaction distribution
system.tol2bus.trans_dist::HardPFResp               1                       # Transaction distribution
system.tol2bus.trans_dist::UpgradeReq          133042                       # Transaction distribution
system.tol2bus.trans_dist::SCUpgradeReq         16871                       # Transaction distribution
system.tol2bus.trans_dist::UpgradeResp         149913                       # Transaction distribution
system.tol2bus.trans_dist::SCUpgradeFailReq            9                       # Transaction distribution
system.tol2bus.trans_dist::UpgradeFailResp            9                       # Transaction distribution
system.tol2bus.trans_dist::ReadExReq          7359086                       # Transaction distribution
system.tol2bus.trans_dist::ReadExResp         7359086                       # Transaction distribution
system.tol2bus.trans_dist::ReadCleanReq      12127522                       # Transaction distribution
system.tol2bus.trans_dist::ReadSharedReq     12183879                       # Transaction distribution
system.tol2bus.trans_dist::InvalidateReq         7136                       # Transaction distribution
system.tol2bus.pkt_count_system.cpu0.icache.mem_side::system.l2.cpu_side      3133397                       # Packet count per connected master and slave (bytes)
system.tol2bus.pkt_count_system.cpu0.dcache.mem_side::system.l2.cpu_side     33974128                       # Packet count per connected master and slave (bytes)
system.tol2bus.pkt_count_system.cpu0.itb_walker_cache.mem_side::system.l2.cpu_side         2491                       # Packet count per connected master and slave (bytes)
system.tol2bus.pkt_count_system.cpu0.dtb_walker_cache.mem_side::system.l2.cpu_side      4179016                       # Packet count per connected master and slave (bytes)
system.tol2bus.pkt_count_system.cpu1.icache.mem_side::system.l2.cpu_side      4178087                       # Packet count per connected master and slave (bytes)
system.tol2bus.pkt_count_system.cpu1.dcache.mem_side::system.l2.cpu_side       986183                       # Packet count per connected master and slave (bytes)
system.tol2bus.pkt_count_system.cpu1.itb_walker_cache.mem_side::system.l2.cpu_side         9954                       # Packet count per connected master and slave (bytes)
system.tol2bus.pkt_count_system.cpu1.dtb_walker_cache.mem_side::system.l2.cpu_side        28191                       # Packet count per connected master and slave (bytes)
system.tol2bus.pkt_count_system.cpu2.icache.mem_side::system.l2.cpu_side      5480408                       # Packet count per connected master and slave (bytes)
system.tol2bus.pkt_count_system.cpu2.dcache.mem_side::system.l2.cpu_side     23340638                       # Packet count per connected master and slave (bytes)
system.tol2bus.pkt_count_system.cpu2.itb_walker_cache.mem_side::system.l2.cpu_side         2790                       # Packet count per connected master and slave (bytes)
system.tol2bus.pkt_count_system.cpu2.dtb_walker_cache.mem_side::system.l2.cpu_side       165016                       # Packet count per connected master and slave (bytes)
system.tol2bus.pkt_count_system.cpu3.icache.mem_side::system.l2.cpu_side     18912211                       # Packet count per connected master and slave (bytes)
system.tol2bus.pkt_count_system.cpu3.dcache.mem_side::system.l2.cpu_side       541685                       # Packet count per connected master and slave (bytes)
system.tol2bus.pkt_count_system.cpu3.itb_walker_cache.mem_side::system.l2.cpu_side         4813                       # Packet count per connected master and slave (bytes)
system.tol2bus.pkt_count_system.cpu3.dtb_walker_cache.mem_side::system.l2.cpu_side        15478                       # Packet count per connected master and slave (bytes)
system.tol2bus.pkt_count::total              94954486                       # Packet count per connected master and slave (bytes)
system.tol2bus.pkt_size_system.cpu0.icache.mem_side::system.l2.cpu_side    133690112                       # Cumulative packet size per connected master and slave (bytes)
system.tol2bus.pkt_size_system.cpu0.dcache.mem_side::system.l2.cpu_side   1447825570                       # Cumulative packet size per connected master and slave (bytes)
system.tol2bus.pkt_size_system.cpu0.itb_walker_cache.mem_side::system.l2.cpu_side        70656                       # Cumulative packet size per connected master and slave (bytes)
system.tol2bus.pkt_size_system.cpu0.dtb_walker_cache.mem_side::system.l2.cpu_side    178186432                       # Cumulative packet size per connected master and slave (bytes)
system.tol2bus.pkt_size_system.cpu1.icache.mem_side::system.l2.cpu_side    178264384                       # Cumulative packet size per connected master and slave (bytes)
system.tol2bus.pkt_size_system.cpu1.dcache.mem_side::system.l2.cpu_side     40899535                       # Cumulative packet size per connected master and slave (bytes)
system.tol2bus.pkt_size_system.cpu1.itb_walker_cache.mem_side::system.l2.cpu_side       346560                       # Cumulative packet size per connected master and slave (bytes)
system.tol2bus.pkt_size_system.cpu1.dtb_walker_cache.mem_side::system.l2.cpu_side      1063168                       # Cumulative packet size per connected master and slave (bytes)
system.tol2bus.pkt_size_system.cpu2.icache.mem_side::system.l2.cpu_side    233830208                       # Cumulative packet size per connected master and slave (bytes)
system.tol2bus.pkt_size_system.cpu2.dcache.mem_side::system.l2.cpu_side    985451014                       # Cumulative packet size per connected master and slave (bytes)
system.tol2bus.pkt_size_system.cpu2.itb_walker_cache.mem_side::system.l2.cpu_side        71360                       # Cumulative packet size per connected master and slave (bytes)
system.tol2bus.pkt_size_system.cpu2.dtb_walker_cache.mem_side::system.l2.cpu_side      1895936                       # Cumulative packet size per connected master and slave (bytes)
system.tol2bus.pkt_size_system.cpu3.icache.mem_side::system.l2.cpu_side    806920320                       # Cumulative packet size per connected master and slave (bytes)
system.tol2bus.pkt_size_system.cpu3.dcache.mem_side::system.l2.cpu_side     22194429                       # Cumulative packet size per connected master and slave (bytes)
system.tol2bus.pkt_size_system.cpu3.itb_walker_cache.mem_side::system.l2.cpu_side       127168                       # Cumulative packet size per connected master and slave (bytes)
system.tol2bus.pkt_size_system.cpu3.dtb_walker_cache.mem_side::system.l2.cpu_side       530816                       # Cumulative packet size per connected master and slave (bytes)
system.tol2bus.pkt_size::total             4031367668                       # Cumulative packet size per connected master and slave (bytes)
system.tol2bus.snoops                        22251147                       # Total snoops (count)
system.tol2bus.snoopTraffic                 549710528                       # Total snoop traffic (bytes)
system.tol2bus.snoop_fanout::samples         53879089                       # Request fanout histogram
system.tol2bus.snoop_fanout::mean            0.046819                       # Request fanout histogram
system.tol2bus.snoop_fanout::stdev           0.255072                       # Request fanout histogram
system.tol2bus.snoop_fanout::underflows             0      0.00%      0.00% # Request fanout histogram
system.tol2bus.snoop_fanout::0               51804576     96.15%     96.15% # Request fanout histogram
system.tol2bus.snoop_fanout::1                1709425      3.17%     99.32% # Request fanout histogram
system.tol2bus.snoop_fanout::2                 295021      0.55%     99.87% # Request fanout histogram
system.tol2bus.snoop_fanout::3                  62062      0.12%     99.99% # Request fanout histogram
system.tol2bus.snoop_fanout::4                   4534      0.01%     99.99% # Request fanout histogram
system.tol2bus.snoop_fanout::5                   2333      0.00%    100.00% # Request fanout histogram
system.tol2bus.snoop_fanout::6                    856      0.00%    100.00% # Request fanout histogram
system.tol2bus.snoop_fanout::7                    282      0.00%    100.00% # Request fanout histogram
system.tol2bus.snoop_fanout::8                      0      0.00%    100.00% # Request fanout histogram
system.tol2bus.snoop_fanout::9                      0      0.00%    100.00% # Request fanout histogram
system.tol2bus.snoop_fanout::10                     0      0.00%    100.00% # Request fanout histogram
system.tol2bus.snoop_fanout::11                     0      0.00%    100.00% # Request fanout histogram
system.tol2bus.snoop_fanout::12                     0      0.00%    100.00% # Request fanout histogram
system.tol2bus.snoop_fanout::13                     0      0.00%    100.00% # Request fanout histogram
system.tol2bus.snoop_fanout::14                     0      0.00%    100.00% # Request fanout histogram
system.tol2bus.snoop_fanout::15                     0      0.00%    100.00% # Request fanout histogram
system.tol2bus.snoop_fanout::16                     0      0.00%    100.00% # Request fanout histogram
system.tol2bus.snoop_fanout::overflows              0      0.00%    100.00% # Request fanout histogram
system.tol2bus.snoop_fanout::min_value              0                       # Request fanout histogram
system.tol2bus.snoop_fanout::max_value              7                       # Request fanout histogram
system.tol2bus.snoop_fanout::total           53879089                       # Request fanout histogram
system.tol2bus.reqLayer0.occupancy        63166719698                       # Layer occupancy (ticks)
system.tol2bus.reqLayer0.utilization             12.5                       # Layer utilization (%)
system.tol2bus.snoopLayer0.occupancy          1730061                       # Layer occupancy (ticks)
system.tol2bus.snoopLayer0.utilization            0.0                       # Layer utilization (%)
system.tol2bus.respLayer0.occupancy        1571880661                       # Layer occupancy (ticks)
system.tol2bus.respLayer0.utilization             0.3                       # Layer utilization (%)
system.tol2bus.respLayer1.occupancy       17042187568                       # Layer occupancy (ticks)
system.tol2bus.respLayer1.utilization             3.4                       # Layer utilization (%)
system.tol2bus.respLayer2.occupancy           2083494                       # Layer occupancy (ticks)
system.tol2bus.respLayer2.utilization             0.0                       # Layer utilization (%)
system.tol2bus.respLayer3.occupancy        2093798946                       # Layer occupancy (ticks)
system.tol2bus.respLayer3.utilization             0.4                       # Layer utilization (%)
system.tol2bus.respLayer4.occupancy        2093873846                       # Layer occupancy (ticks)
system.tol2bus.respLayer4.utilization             0.4                       # Layer utilization (%)
system.tol2bus.respLayer5.occupancy         503016333                       # Layer occupancy (ticks)
system.tol2bus.respLayer5.utilization             0.1                       # Layer utilization (%)
system.tol2bus.respLayer6.occupancy           6844427                       # Layer occupancy (ticks)
system.tol2bus.respLayer6.utilization             0.0                       # Layer utilization (%)
system.tol2bus.respLayer7.occupancy          17469298                       # Layer occupancy (ticks)
system.tol2bus.respLayer7.utilization             0.0                       # Layer utilization (%)
system.tol2bus.respLayer8.occupancy        2746674025                       # Layer occupancy (ticks)
system.tol2bus.respLayer8.utilization             0.5                       # Layer utilization (%)
system.tol2bus.respLayer9.occupancy       11645080722                       # Layer occupancy (ticks)
system.tol2bus.respLayer9.utilization             2.3                       # Layer utilization (%)
system.tol2bus.respLayer10.occupancy          2518987                       # Layer occupancy (ticks)
system.tol2bus.respLayer10.utilization            0.0                       # Layer utilization (%)
system.tol2bus.respLayer11.occupancy        203206762                       # Layer occupancy (ticks)
system.tol2bus.respLayer11.utilization            0.0                       # Layer utilization (%)
system.tol2bus.respLayer12.occupancy       9469881564                       # Layer occupancy (ticks)
system.tol2bus.respLayer12.utilization            1.9                       # Layer utilization (%)
system.tol2bus.respLayer13.occupancy        278940954                       # Layer occupancy (ticks)
system.tol2bus.respLayer13.utilization            0.1                       # Layer utilization (%)
system.tol2bus.respLayer14.occupancy          4251474                       # Layer occupancy (ticks)
system.tol2bus.respLayer14.utilization            0.0                       # Layer utilization (%)
system.tol2bus.respLayer15.occupancy         10811429                       # Layer occupancy (ticks)
system.tol2bus.respLayer15.utilization            0.0                       # Layer utilization (%)
system.switch_cpus0.kern.inst.arm                   0                       # number of arm instructions executed
system.switch_cpus0.kern.inst.quiesce               0                       # number of quiesce instructions executed
system.switch_cpus1.kern.inst.arm                   0                       # number of arm instructions executed
system.switch_cpus1.kern.inst.quiesce               0                       # number of quiesce instructions executed
system.switch_cpus2.kern.inst.arm                   0                       # number of arm instructions executed
system.switch_cpus2.kern.inst.quiesce               0                       # number of quiesce instructions executed
system.switch_cpus3.kern.inst.arm                   0                       # number of arm instructions executed
system.switch_cpus3.kern.inst.quiesce               0                       # number of quiesce instructions executed

---------- End Simulation Statistics   ----------
