
---------- Begin Simulation Statistics ----------
sim_seconds                                  0.504596                       # Number of seconds simulated
sim_ticks                                504596378500                       # Number of ticks simulated
final_tick                               3741139997500                       # Number of ticks from beginning of simulation (restored from checkpoints and never reset)
sim_freq                                 1000000000000                       # Frequency of simulated ticks
host_inst_rate                                 102960                       # Simulator instruction rate (inst/s)
host_op_rate                                   122982                       # Simulator op (including micro ops) rate (op/s)
host_tick_rate                               18067295                       # Simulator tick rate (ticks/s)
host_mem_usage                                2647336                       # Number of bytes of host memory used
host_seconds                                 27928.72                       # Real time elapsed on the host
sim_insts                                  2875545834                       # Number of instructions simulated
sim_ops                                    3434738635                       # Number of ops (including micro ops) simulated
system.voltage_domain.voltage                       1                       # Voltage in Volts
system.clk_domain.clock                          1000                       # Clock period in ticks
system.mem_ctrls.pwrStateResidencyTicks::UNDEFINED 3741139997500                       # Cumulative time (in ticks) in various power states
system.mem_ctrls.bytes_read::l2.prefetcher    463373312                       # Number of bytes read from this memory
system.mem_ctrls.bytes_read::switch_cpus0.dtb.walker      4361728                       # Number of bytes read from this memory
system.mem_ctrls.bytes_read::switch_cpus0.itb.walker        14720                       # Number of bytes read from this memory
system.mem_ctrls.bytes_read::switch_cpus0.inst      9229376                       # Number of bytes read from this memory
system.mem_ctrls.bytes_read::switch_cpus0.data    245612032                       # Number of bytes read from this memory
system.mem_ctrls.bytes_read::switch_cpus1.dtb.walker       221376                       # Number of bytes read from this memory
system.mem_ctrls.bytes_read::switch_cpus1.itb.walker        83392                       # Number of bytes read from this memory
system.mem_ctrls.bytes_read::switch_cpus1.inst     15216576                       # Number of bytes read from this memory
system.mem_ctrls.bytes_read::switch_cpus1.data      5883840                       # Number of bytes read from this memory
system.mem_ctrls.bytes_read::switch_cpus2.dtb.walker       490112                       # Number of bytes read from this memory
system.mem_ctrls.bytes_read::switch_cpus2.itb.walker        25216                       # Number of bytes read from this memory
system.mem_ctrls.bytes_read::switch_cpus2.inst     24127488                       # Number of bytes read from this memory
system.mem_ctrls.bytes_read::switch_cpus2.data     51823808                       # Number of bytes read from this memory
system.mem_ctrls.bytes_read::switch_cpus3.dtb.walker       160640                       # Number of bytes read from this memory
system.mem_ctrls.bytes_read::switch_cpus3.itb.walker        50816                       # Number of bytes read from this memory
system.mem_ctrls.bytes_read::switch_cpus3.inst     41934656                       # Number of bytes read from this memory
system.mem_ctrls.bytes_read::switch_cpus3.data      5025024                       # Number of bytes read from this memory
system.mem_ctrls.bytes_read::total          867634112                       # Number of bytes read from this memory
system.mem_ctrls.bytes_inst_read::switch_cpus0.inst      9229376                       # Number of instructions bytes read from this memory
system.mem_ctrls.bytes_inst_read::switch_cpus1.inst     15216576                       # Number of instructions bytes read from this memory
system.mem_ctrls.bytes_inst_read::switch_cpus2.inst     24127488                       # Number of instructions bytes read from this memory
system.mem_ctrls.bytes_inst_read::switch_cpus3.inst     41934656                       # Number of instructions bytes read from this memory
system.mem_ctrls.bytes_inst_read::total      90508096                       # Number of instructions bytes read from this memory
system.mem_ctrls.bytes_written::writebacks    553502720                       # Number of bytes written to this memory
system.mem_ctrls.bytes_written::total       553502720                       # Number of bytes written to this memory
system.mem_ctrls.num_reads::l2.prefetcher      7240208                       # Number of read requests responded to by this memory
system.mem_ctrls.num_reads::switch_cpus0.dtb.walker        68152                       # Number of read requests responded to by this memory
system.mem_ctrls.num_reads::switch_cpus0.itb.walker          230                       # Number of read requests responded to by this memory
system.mem_ctrls.num_reads::switch_cpus0.inst       144209                       # Number of read requests responded to by this memory
system.mem_ctrls.num_reads::switch_cpus0.data      3837688                       # Number of read requests responded to by this memory
system.mem_ctrls.num_reads::switch_cpus1.dtb.walker         3459                       # Number of read requests responded to by this memory
system.mem_ctrls.num_reads::switch_cpus1.itb.walker         1303                       # Number of read requests responded to by this memory
system.mem_ctrls.num_reads::switch_cpus1.inst       237759                       # Number of read requests responded to by this memory
system.mem_ctrls.num_reads::switch_cpus1.data        91935                       # Number of read requests responded to by this memory
system.mem_ctrls.num_reads::switch_cpus2.dtb.walker         7658                       # Number of read requests responded to by this memory
system.mem_ctrls.num_reads::switch_cpus2.itb.walker          394                       # Number of read requests responded to by this memory
system.mem_ctrls.num_reads::switch_cpus2.inst       376992                       # Number of read requests responded to by this memory
system.mem_ctrls.num_reads::switch_cpus2.data       809747                       # Number of read requests responded to by this memory
system.mem_ctrls.num_reads::switch_cpus3.dtb.walker         2510                       # Number of read requests responded to by this memory
system.mem_ctrls.num_reads::switch_cpus3.itb.walker          794                       # Number of read requests responded to by this memory
system.mem_ctrls.num_reads::switch_cpus3.inst       655229                       # Number of read requests responded to by this memory
system.mem_ctrls.num_reads::switch_cpus3.data        78516                       # Number of read requests responded to by this memory
system.mem_ctrls.num_reads::total            13556783                       # Number of read requests responded to by this memory
system.mem_ctrls.num_writes::writebacks       8648480                       # Number of write requests responded to by this memory
system.mem_ctrls.num_writes::total            8648480                       # Number of write requests responded to by this memory
system.mem_ctrls.bw_read::l2.prefetcher     918304870                       # Total read bandwidth from this memory (bytes/s)
system.mem_ctrls.bw_read::switch_cpus0.dtb.walker      8643994                       # Total read bandwidth from this memory (bytes/s)
system.mem_ctrls.bw_read::switch_cpus0.itb.walker        29172                       # Total read bandwidth from this memory (bytes/s)
system.mem_ctrls.bw_read::switch_cpus0.inst     18290611                       # Total read bandwidth from this memory (bytes/s)
system.mem_ctrls.bw_read::switch_cpus0.data    486749494                       # Total read bandwidth from this memory (bytes/s)
system.mem_ctrls.bw_read::switch_cpus1.dtb.walker       438719                       # Total read bandwidth from this memory (bytes/s)
system.mem_ctrls.bw_read::switch_cpus1.itb.walker       165265                       # Total read bandwidth from this memory (bytes/s)
system.mem_ctrls.bw_read::switch_cpus1.inst     30155936                       # Total read bandwidth from this memory (bytes/s)
system.mem_ctrls.bw_read::switch_cpus1.data     11660488                       # Total read bandwidth from this memory (bytes/s)
system.mem_ctrls.bw_read::switch_cpus2.dtb.walker       971295                       # Total read bandwidth from this memory (bytes/s)
system.mem_ctrls.bw_read::switch_cpus2.itb.walker        49973                       # Total read bandwidth from this memory (bytes/s)
system.mem_ctrls.bw_read::switch_cpus2.inst     47815420                       # Total read bandwidth from this memory (bytes/s)
system.mem_ctrls.bw_read::switch_cpus2.data    102703488                       # Total read bandwidth from this memory (bytes/s)
system.mem_ctrls.bw_read::switch_cpus3.dtb.walker       318353                       # Total read bandwidth from this memory (bytes/s)
system.mem_ctrls.bw_read::switch_cpus3.itb.walker       100706                       # Total read bandwidth from this memory (bytes/s)
system.mem_ctrls.bw_read::switch_cpus3.inst     83105345                       # Total read bandwidth from this memory (bytes/s)
system.mem_ctrls.bw_read::switch_cpus3.data      9958502                       # Total read bandwidth from this memory (bytes/s)
system.mem_ctrls.bw_read::total            1719461631                       # Total read bandwidth from this memory (bytes/s)
system.mem_ctrls.bw_inst_read::switch_cpus0.inst     18290611                       # Instruction read bandwidth from this memory (bytes/s)
system.mem_ctrls.bw_inst_read::switch_cpus1.inst     30155936                       # Instruction read bandwidth from this memory (bytes/s)
system.mem_ctrls.bw_inst_read::switch_cpus2.inst     47815420                       # Instruction read bandwidth from this memory (bytes/s)
system.mem_ctrls.bw_inst_read::switch_cpus3.inst     83105345                       # Instruction read bandwidth from this memory (bytes/s)
system.mem_ctrls.bw_inst_read::total        179367312                       # Instruction read bandwidth from this memory (bytes/s)
system.mem_ctrls.bw_write::writebacks      1096921705                       # Write bandwidth from this memory (bytes/s)
system.mem_ctrls.bw_write::total           1096921705                       # Write bandwidth from this memory (bytes/s)
system.mem_ctrls.bw_total::writebacks      1096921705                       # Total bandwidth to/from this memory (bytes/s)
system.mem_ctrls.bw_total::l2.prefetcher    918304870                       # Total bandwidth to/from this memory (bytes/s)
system.mem_ctrls.bw_total::switch_cpus0.dtb.walker      8643994                       # Total bandwidth to/from this memory (bytes/s)
system.mem_ctrls.bw_total::switch_cpus0.itb.walker        29172                       # Total bandwidth to/from this memory (bytes/s)
system.mem_ctrls.bw_total::switch_cpus0.inst     18290611                       # Total bandwidth to/from this memory (bytes/s)
system.mem_ctrls.bw_total::switch_cpus0.data    486749494                       # Total bandwidth to/from this memory (bytes/s)
system.mem_ctrls.bw_total::switch_cpus1.dtb.walker       438719                       # Total bandwidth to/from this memory (bytes/s)
system.mem_ctrls.bw_total::switch_cpus1.itb.walker       165265                       # Total bandwidth to/from this memory (bytes/s)
system.mem_ctrls.bw_total::switch_cpus1.inst     30155936                       # Total bandwidth to/from this memory (bytes/s)
system.mem_ctrls.bw_total::switch_cpus1.data     11660488                       # Total bandwidth to/from this memory (bytes/s)
system.mem_ctrls.bw_total::switch_cpus2.dtb.walker       971295                       # Total bandwidth to/from this memory (bytes/s)
system.mem_ctrls.bw_total::switch_cpus2.itb.walker        49973                       # Total bandwidth to/from this memory (bytes/s)
system.mem_ctrls.bw_total::switch_cpus2.inst     47815420                       # Total bandwidth to/from this memory (bytes/s)
system.mem_ctrls.bw_total::switch_cpus2.data    102703488                       # Total bandwidth to/from this memory (bytes/s)
system.mem_ctrls.bw_total::switch_cpus3.dtb.walker       318353                       # Total bandwidth to/from this memory (bytes/s)
system.mem_ctrls.bw_total::switch_cpus3.itb.walker       100706                       # Total bandwidth to/from this memory (bytes/s)
system.mem_ctrls.bw_total::switch_cpus3.inst     83105345                       # Total bandwidth to/from this memory (bytes/s)
system.mem_ctrls.bw_total::switch_cpus3.data      9958502                       # Total bandwidth to/from this memory (bytes/s)
system.mem_ctrls.bw_total::total           2816383336                       # Total bandwidth to/from this memory (bytes/s)
system.mem_ctrls.readReqs                    13556783                       # Number of read requests accepted
system.mem_ctrls.writeReqs                    8648480                       # Number of write requests accepted
system.mem_ctrls.readBursts                  13556783                       # Number of DRAM read bursts, including those serviced by the write queue
system.mem_ctrls.writeBursts                  8648480                       # Number of DRAM write bursts, including those merged in the write queue
system.mem_ctrls.bytesReadDRAM              867234240                       # Total number of bytes read from DRAM
system.mem_ctrls.bytesReadWrQ                  399872                       # Total number of bytes read from write queue
system.mem_ctrls.bytesWritten               553500416                       # Total number of bytes written to DRAM
system.mem_ctrls.bytesReadSys               867634112                       # Total read bytes from the system interface side
system.mem_ctrls.bytesWrittenSys            553502720                       # Total written bytes from the system interface side
system.mem_ctrls.servicedByWrQ                   6248                       # Number of DRAM read bursts serviced by the write queue
system.mem_ctrls.mergedWrBursts                     4                       # Number of DRAM write bursts merged with an existing one
system.mem_ctrls.neitherReadNorWriteReqs            0                       # Number of requests that are neither read nor write
system.mem_ctrls.perBankRdBursts::0            778205                       # Per bank write bursts
system.mem_ctrls.perBankRdBursts::1            887791                       # Per bank write bursts
system.mem_ctrls.perBankRdBursts::2            769228                       # Per bank write bursts
system.mem_ctrls.perBankRdBursts::3            832321                       # Per bank write bursts
system.mem_ctrls.perBankRdBursts::4            860411                       # Per bank write bursts
system.mem_ctrls.perBankRdBursts::5            820739                       # Per bank write bursts
system.mem_ctrls.perBankRdBursts::6            882800                       # Per bank write bursts
system.mem_ctrls.perBankRdBursts::7            899485                       # Per bank write bursts
system.mem_ctrls.perBankRdBursts::8            912721                       # Per bank write bursts
system.mem_ctrls.perBankRdBursts::9            802964                       # Per bank write bursts
system.mem_ctrls.perBankRdBursts::10           820121                       # Per bank write bursts
system.mem_ctrls.perBankRdBursts::11           972552                       # Per bank write bursts
system.mem_ctrls.perBankRdBursts::12           819194                       # Per bank write bursts
system.mem_ctrls.perBankRdBursts::13           891312                       # Per bank write bursts
system.mem_ctrls.perBankRdBursts::14           795490                       # Per bank write bursts
system.mem_ctrls.perBankRdBursts::15           805201                       # Per bank write bursts
system.mem_ctrls.perBankWrBursts::0            549186                       # Per bank write bursts
system.mem_ctrls.perBankWrBursts::1            524005                       # Per bank write bursts
system.mem_ctrls.perBankWrBursts::2            529386                       # Per bank write bursts
system.mem_ctrls.perBankWrBursts::3            542937                       # Per bank write bursts
system.mem_ctrls.perBankWrBursts::4            548101                       # Per bank write bursts
system.mem_ctrls.perBankWrBursts::5            551033                       # Per bank write bursts
system.mem_ctrls.perBankWrBursts::6            566618                       # Per bank write bursts
system.mem_ctrls.perBankWrBursts::7            560963                       # Per bank write bursts
system.mem_ctrls.perBankWrBursts::8            538877                       # Per bank write bursts
system.mem_ctrls.perBankWrBursts::9            529767                       # Per bank write bursts
system.mem_ctrls.perBankWrBursts::10           543485                       # Per bank write bursts
system.mem_ctrls.perBankWrBursts::11           533874                       # Per bank write bursts
system.mem_ctrls.perBankWrBursts::12           550166                       # Per bank write bursts
system.mem_ctrls.perBankWrBursts::13           531362                       # Per bank write bursts
system.mem_ctrls.perBankWrBursts::14           529675                       # Per bank write bursts
system.mem_ctrls.perBankWrBursts::15           519009                       # Per bank write bursts
system.mem_ctrls.numRdRetry                         0                       # Number of times read queue was full causing retry
system.mem_ctrls.numWrRetry                      1243                       # Number of times write queue was full causing retry
system.mem_ctrls.totGap                  504596339000                       # Total gap between requests
system.mem_ctrls.readPktSize::0                     0                       # Read request sizes (log2)
system.mem_ctrls.readPktSize::1                     0                       # Read request sizes (log2)
system.mem_ctrls.readPktSize::2                     0                       # Read request sizes (log2)
system.mem_ctrls.readPktSize::3                     0                       # Read request sizes (log2)
system.mem_ctrls.readPktSize::4                     0                       # Read request sizes (log2)
system.mem_ctrls.readPktSize::5                     0                       # Read request sizes (log2)
system.mem_ctrls.readPktSize::6              13556783                       # Read request sizes (log2)
system.mem_ctrls.writePktSize::0                    0                       # Write request sizes (log2)
system.mem_ctrls.writePktSize::1                    0                       # Write request sizes (log2)
system.mem_ctrls.writePktSize::2                    0                       # Write request sizes (log2)
system.mem_ctrls.writePktSize::3                    0                       # Write request sizes (log2)
system.mem_ctrls.writePktSize::4                    0                       # Write request sizes (log2)
system.mem_ctrls.writePktSize::5                    0                       # Write request sizes (log2)
system.mem_ctrls.writePktSize::6              8648480                       # Write request sizes (log2)
system.mem_ctrls.rdQLenPdf::0                 2833387                       # What read queue length does an incoming req see
system.mem_ctrls.rdQLenPdf::1                 3376141                       # What read queue length does an incoming req see
system.mem_ctrls.rdQLenPdf::2                 1724541                       # What read queue length does an incoming req see
system.mem_ctrls.rdQLenPdf::3                 1247066                       # What read queue length does an incoming req see
system.mem_ctrls.rdQLenPdf::4                 1010399                       # What read queue length does an incoming req see
system.mem_ctrls.rdQLenPdf::5                  801011                       # What read queue length does an incoming req see
system.mem_ctrls.rdQLenPdf::6                  654032                       # What read queue length does an incoming req see
system.mem_ctrls.rdQLenPdf::7                  596252                       # What read queue length does an incoming req see
system.mem_ctrls.rdQLenPdf::8                  520979                       # What read queue length does an incoming req see
system.mem_ctrls.rdQLenPdf::9                  393212                       # What read queue length does an incoming req see
system.mem_ctrls.rdQLenPdf::10                 231867                       # What read queue length does an incoming req see
system.mem_ctrls.rdQLenPdf::11                 100212                       # What read queue length does an incoming req see
system.mem_ctrls.rdQLenPdf::12                  37925                       # What read queue length does an incoming req see
system.mem_ctrls.rdQLenPdf::13                  19271                       # What read queue length does an incoming req see
system.mem_ctrls.rdQLenPdf::14                   3462                       # What read queue length does an incoming req see
system.mem_ctrls.rdQLenPdf::15                    778                       # What read queue length does an incoming req see
system.mem_ctrls.rdQLenPdf::16                      0                       # What read queue length does an incoming req see
system.mem_ctrls.rdQLenPdf::17                      0                       # What read queue length does an incoming req see
system.mem_ctrls.rdQLenPdf::18                      0                       # What read queue length does an incoming req see
system.mem_ctrls.rdQLenPdf::19                      0                       # What read queue length does an incoming req see
system.mem_ctrls.rdQLenPdf::20                      0                       # What read queue length does an incoming req see
system.mem_ctrls.rdQLenPdf::21                      0                       # What read queue length does an incoming req see
system.mem_ctrls.rdQLenPdf::22                      0                       # What read queue length does an incoming req see
system.mem_ctrls.rdQLenPdf::23                      0                       # What read queue length does an incoming req see
system.mem_ctrls.rdQLenPdf::24                      0                       # What read queue length does an incoming req see
system.mem_ctrls.rdQLenPdf::25                      0                       # What read queue length does an incoming req see
system.mem_ctrls.rdQLenPdf::26                      0                       # What read queue length does an incoming req see
system.mem_ctrls.rdQLenPdf::27                      0                       # What read queue length does an incoming req see
system.mem_ctrls.rdQLenPdf::28                      0                       # What read queue length does an incoming req see
system.mem_ctrls.rdQLenPdf::29                      0                       # What read queue length does an incoming req see
system.mem_ctrls.rdQLenPdf::30                      0                       # What read queue length does an incoming req see
system.mem_ctrls.rdQLenPdf::31                      0                       # What read queue length does an incoming req see
system.mem_ctrls.wrQLenPdf::0                       1                       # What write queue length does an incoming req see
system.mem_ctrls.wrQLenPdf::1                       1                       # What write queue length does an incoming req see
system.mem_ctrls.wrQLenPdf::2                       1                       # What write queue length does an incoming req see
system.mem_ctrls.wrQLenPdf::3                       1                       # What write queue length does an incoming req see
system.mem_ctrls.wrQLenPdf::4                       1                       # What write queue length does an incoming req see
system.mem_ctrls.wrQLenPdf::5                       1                       # What write queue length does an incoming req see
system.mem_ctrls.wrQLenPdf::6                       1                       # What write queue length does an incoming req see
system.mem_ctrls.wrQLenPdf::7                       1                       # What write queue length does an incoming req see
system.mem_ctrls.wrQLenPdf::8                       1                       # What write queue length does an incoming req see
system.mem_ctrls.wrQLenPdf::9                       1                       # What write queue length does an incoming req see
system.mem_ctrls.wrQLenPdf::10                      1                       # What write queue length does an incoming req see
system.mem_ctrls.wrQLenPdf::11                      1                       # What write queue length does an incoming req see
system.mem_ctrls.wrQLenPdf::12                      1                       # What write queue length does an incoming req see
system.mem_ctrls.wrQLenPdf::13                      1                       # What write queue length does an incoming req see
system.mem_ctrls.wrQLenPdf::14                      1                       # What write queue length does an incoming req see
system.mem_ctrls.wrQLenPdf::15                  12255                       # What write queue length does an incoming req see
system.mem_ctrls.wrQLenPdf::16                  15351                       # What write queue length does an incoming req see
system.mem_ctrls.wrQLenPdf::17                  76920                       # What write queue length does an incoming req see
system.mem_ctrls.wrQLenPdf::18                 133824                       # What write queue length does an incoming req see
system.mem_ctrls.wrQLenPdf::19                 183229                       # What write queue length does an incoming req see
system.mem_ctrls.wrQLenPdf::20                 241400                       # What write queue length does an incoming req see
system.mem_ctrls.wrQLenPdf::21                 322759                       # What write queue length does an incoming req see
system.mem_ctrls.wrQLenPdf::22                 390885                       # What write queue length does an incoming req see
system.mem_ctrls.wrQLenPdf::23                 450979                       # What write queue length does an incoming req see
system.mem_ctrls.wrQLenPdf::24                 504989                       # What write queue length does an incoming req see
system.mem_ctrls.wrQLenPdf::25                 556133                       # What write queue length does an incoming req see
system.mem_ctrls.wrQLenPdf::26                 608050                       # What write queue length does an incoming req see
system.mem_ctrls.wrQLenPdf::27                 658391                       # What write queue length does an incoming req see
system.mem_ctrls.wrQLenPdf::28                 719249                       # What write queue length does an incoming req see
system.mem_ctrls.wrQLenPdf::29                 798608                       # What write queue length does an incoming req see
system.mem_ctrls.wrQLenPdf::30                 824481                       # What write queue length does an incoming req see
system.mem_ctrls.wrQLenPdf::31                 811283                       # What write queue length does an incoming req see
system.mem_ctrls.wrQLenPdf::32                 721680                       # What write queue length does an incoming req see
system.mem_ctrls.wrQLenPdf::33                 151041                       # What write queue length does an incoming req see
system.mem_ctrls.wrQLenPdf::34                  95099                       # What write queue length does an incoming req see
system.mem_ctrls.wrQLenPdf::35                  63893                       # What write queue length does an incoming req see
system.mem_ctrls.wrQLenPdf::36                  45434                       # What write queue length does an incoming req see
system.mem_ctrls.wrQLenPdf::37                  33577                       # What write queue length does an incoming req see
system.mem_ctrls.wrQLenPdf::38                  25914                       # What write queue length does an incoming req see
system.mem_ctrls.wrQLenPdf::39                  21010                       # What write queue length does an incoming req see
system.mem_ctrls.wrQLenPdf::40                  16879                       # What write queue length does an incoming req see
system.mem_ctrls.wrQLenPdf::41                  14452                       # What write queue length does an incoming req see
system.mem_ctrls.wrQLenPdf::42                  12535                       # What write queue length does an incoming req see
system.mem_ctrls.wrQLenPdf::43                  11381                       # What write queue length does an incoming req see
system.mem_ctrls.wrQLenPdf::44                  10199                       # What write queue length does an incoming req see
system.mem_ctrls.wrQLenPdf::45                   9222                       # What write queue length does an incoming req see
system.mem_ctrls.wrQLenPdf::46                   8656                       # What write queue length does an incoming req see
system.mem_ctrls.wrQLenPdf::47                   8313                       # What write queue length does an incoming req see
system.mem_ctrls.wrQLenPdf::48                   7958                       # What write queue length does an incoming req see
system.mem_ctrls.wrQLenPdf::49                   7745                       # What write queue length does an incoming req see
system.mem_ctrls.wrQLenPdf::50                   7578                       # What write queue length does an incoming req see
system.mem_ctrls.wrQLenPdf::51                   7529                       # What write queue length does an incoming req see
system.mem_ctrls.wrQLenPdf::52                   7728                       # What write queue length does an incoming req see
system.mem_ctrls.wrQLenPdf::53                   7697                       # What write queue length does an incoming req see
system.mem_ctrls.wrQLenPdf::54                   7922                       # What write queue length does an incoming req see
system.mem_ctrls.wrQLenPdf::55                   7760                       # What write queue length does an incoming req see
system.mem_ctrls.wrQLenPdf::56                   5639                       # What write queue length does an incoming req see
system.mem_ctrls.wrQLenPdf::57                   4509                       # What write queue length does an incoming req see
system.mem_ctrls.wrQLenPdf::58                   3785                       # What write queue length does an incoming req see
system.mem_ctrls.wrQLenPdf::59                   3340                       # What write queue length does an incoming req see
system.mem_ctrls.wrQLenPdf::60                   2634                       # What write queue length does an incoming req see
system.mem_ctrls.wrQLenPdf::61                   2481                       # What write queue length does an incoming req see
system.mem_ctrls.wrQLenPdf::62                   2201                       # What write queue length does an incoming req see
system.mem_ctrls.wrQLenPdf::63                   3884                       # What write queue length does an incoming req see
system.mem_ctrls.bytesPerActivate::samples     11047880                       # Bytes accessed per row activation
system.mem_ctrls.bytesPerActivate::mean    128.597967                       # Bytes accessed per row activation
system.mem_ctrls.bytesPerActivate::gmean    89.194394                       # Bytes accessed per row activation
system.mem_ctrls.bytesPerActivate::stdev   177.876652                       # Bytes accessed per row activation
system.mem_ctrls.bytesPerActivate::0-127      8311866     75.23%     75.23% # Bytes accessed per row activation
system.mem_ctrls.bytesPerActivate::128-255      1552889     14.06%     89.29% # Bytes accessed per row activation
system.mem_ctrls.bytesPerActivate::256-383       404804      3.66%     92.96% # Bytes accessed per row activation
system.mem_ctrls.bytesPerActivate::384-511       177810      1.61%     94.56% # Bytes accessed per row activation
system.mem_ctrls.bytesPerActivate::512-639       191423      1.73%     96.30% # Bytes accessed per row activation
system.mem_ctrls.bytesPerActivate::640-767        87898      0.80%     97.09% # Bytes accessed per row activation
system.mem_ctrls.bytesPerActivate::768-895        54237      0.49%     97.58% # Bytes accessed per row activation
system.mem_ctrls.bytesPerActivate::896-1023        62234      0.56%     98.15% # Bytes accessed per row activation
system.mem_ctrls.bytesPerActivate::1024-1151       204719      1.85%    100.00% # Bytes accessed per row activation
system.mem_ctrls.bytesPerActivate::total     11047880                       # Bytes accessed per row activation
system.mem_ctrls.rdPerTurnAround::samples       536380                       # Reads before turning the bus around for writes
system.mem_ctrls.rdPerTurnAround::mean      25.301014                       # Reads before turning the bus around for writes
system.mem_ctrls.rdPerTurnAround::stdev     41.763074                       # Reads before turning the bus around for writes
system.mem_ctrls.rdPerTurnAround::0-1023       536373    100.00%    100.00% # Reads before turning the bus around for writes
system.mem_ctrls.rdPerTurnAround::1024-2047            6      0.00%    100.00% # Reads before turning the bus around for writes
system.mem_ctrls.rdPerTurnAround::27648-28671            1      0.00%    100.00% # Reads before turning the bus around for writes
system.mem_ctrls.rdPerTurnAround::total        536380                       # Reads before turning the bus around for writes
system.mem_ctrls.wrPerTurnAround::samples       536380                       # Writes before turning the bus around for reads
system.mem_ctrls.wrPerTurnAround::mean      16.123726                       # Writes before turning the bus around for reads
system.mem_ctrls.wrPerTurnAround::gmean     16.105872                       # Writes before turning the bus around for reads
system.mem_ctrls.wrPerTurnAround::stdev      0.979158                       # Writes before turning the bus around for reads
system.mem_ctrls.wrPerTurnAround::16-17        519659     96.88%     96.88% # Writes before turning the bus around for reads
system.mem_ctrls.wrPerTurnAround::18-19         11044      2.06%     98.94% # Writes before turning the bus around for reads
system.mem_ctrls.wrPerTurnAround::20-21          3439      0.64%     99.58% # Writes before turning the bus around for reads
system.mem_ctrls.wrPerTurnAround::22-23          1184      0.22%     99.80% # Writes before turning the bus around for reads
system.mem_ctrls.wrPerTurnAround::24-25           454      0.08%     99.89% # Writes before turning the bus around for reads
system.mem_ctrls.wrPerTurnAround::26-27           209      0.04%     99.93% # Writes before turning the bus around for reads
system.mem_ctrls.wrPerTurnAround::28-29           107      0.02%     99.95% # Writes before turning the bus around for reads
system.mem_ctrls.wrPerTurnAround::30-31            63      0.01%     99.96% # Writes before turning the bus around for reads
system.mem_ctrls.wrPerTurnAround::32-33            45      0.01%     99.97% # Writes before turning the bus around for reads
system.mem_ctrls.wrPerTurnAround::34-35            31      0.01%     99.97% # Writes before turning the bus around for reads
system.mem_ctrls.wrPerTurnAround::36-37            20      0.00%     99.98% # Writes before turning the bus around for reads
system.mem_ctrls.wrPerTurnAround::38-39            16      0.00%     99.98% # Writes before turning the bus around for reads
system.mem_ctrls.wrPerTurnAround::40-41            16      0.00%     99.98% # Writes before turning the bus around for reads
system.mem_ctrls.wrPerTurnAround::42-43             8      0.00%     99.98% # Writes before turning the bus around for reads
system.mem_ctrls.wrPerTurnAround::44-45             8      0.00%     99.99% # Writes before turning the bus around for reads
system.mem_ctrls.wrPerTurnAround::46-47             6      0.00%     99.99% # Writes before turning the bus around for reads
system.mem_ctrls.wrPerTurnAround::48-49            10      0.00%     99.99% # Writes before turning the bus around for reads
system.mem_ctrls.wrPerTurnAround::50-51             7      0.00%     99.99% # Writes before turning the bus around for reads
system.mem_ctrls.wrPerTurnAround::52-53             8      0.00%     99.99% # Writes before turning the bus around for reads
system.mem_ctrls.wrPerTurnAround::54-55             3      0.00%     99.99% # Writes before turning the bus around for reads
system.mem_ctrls.wrPerTurnAround::56-57             2      0.00%     99.99% # Writes before turning the bus around for reads
system.mem_ctrls.wrPerTurnAround::58-59             2      0.00%     99.99% # Writes before turning the bus around for reads
system.mem_ctrls.wrPerTurnAround::60-61             4      0.00%     99.99% # Writes before turning the bus around for reads
system.mem_ctrls.wrPerTurnAround::62-63             5      0.00%     99.99% # Writes before turning the bus around for reads
system.mem_ctrls.wrPerTurnAround::64-65             5      0.00%    100.00% # Writes before turning the bus around for reads
system.mem_ctrls.wrPerTurnAround::66-67             2      0.00%    100.00% # Writes before turning the bus around for reads
system.mem_ctrls.wrPerTurnAround::68-69             4      0.00%    100.00% # Writes before turning the bus around for reads
system.mem_ctrls.wrPerTurnAround::72-73             4      0.00%    100.00% # Writes before turning the bus around for reads
system.mem_ctrls.wrPerTurnAround::74-75             1      0.00%    100.00% # Writes before turning the bus around for reads
system.mem_ctrls.wrPerTurnAround::76-77             1      0.00%    100.00% # Writes before turning the bus around for reads
system.mem_ctrls.wrPerTurnAround::78-79             1      0.00%    100.00% # Writes before turning the bus around for reads
system.mem_ctrls.wrPerTurnAround::80-81             2      0.00%    100.00% # Writes before turning the bus around for reads
system.mem_ctrls.wrPerTurnAround::84-85             1      0.00%    100.00% # Writes before turning the bus around for reads
system.mem_ctrls.wrPerTurnAround::88-89             2      0.00%    100.00% # Writes before turning the bus around for reads
system.mem_ctrls.wrPerTurnAround::90-91             2      0.00%    100.00% # Writes before turning the bus around for reads
system.mem_ctrls.wrPerTurnAround::98-99             1      0.00%    100.00% # Writes before turning the bus around for reads
system.mem_ctrls.wrPerTurnAround::104-105            2      0.00%    100.00% # Writes before turning the bus around for reads
system.mem_ctrls.wrPerTurnAround::112-113            1      0.00%    100.00% # Writes before turning the bus around for reads
system.mem_ctrls.wrPerTurnAround::122-123            1      0.00%    100.00% # Writes before turning the bus around for reads
system.mem_ctrls.wrPerTurnAround::total        536380                       # Writes before turning the bus around for reads
system.mem_ctrls.totQLat                 1123708829099                       # Total ticks spent queuing
system.mem_ctrls.totMemAccLat            1377781360349                       # Total ticks spent from burst creation until serviced by the DRAM
system.mem_ctrls.totBusLat                67752675000                       # Total ticks spent in databus transfers
system.mem_ctrls.avgQLat                     82927.27                       # Average queueing delay per DRAM burst
system.mem_ctrls.avgBusLat                    5000.00                       # Average bus latency per DRAM burst
system.mem_ctrls.avgMemAccLat               101677.27                       # Average memory access latency per DRAM burst
system.mem_ctrls.avgRdBW                      1718.67                       # Average DRAM read bandwidth in MiByte/s
system.mem_ctrls.avgWrBW                      1096.92                       # Average achieved write bandwidth in MiByte/s
system.mem_ctrls.avgRdBWSys                   1719.46                       # Average system read bandwidth in MiByte/s
system.mem_ctrls.avgWrBWSys                   1096.92                       # Average system write bandwidth in MiByte/s
system.mem_ctrls.peakBW                      12800.00                       # Theoretical peak bandwidth in MiByte/s
system.mem_ctrls.busUtil                        22.00                       # Data bus utilization in percentage
system.mem_ctrls.busUtilRead                    13.43                       # Data bus utilization in percentage for reads
system.mem_ctrls.busUtilWrite                    8.57                       # Data bus utilization in percentage for writes
system.mem_ctrls.avgRdQLen                       3.75                       # Average read queue length when enqueuing
system.mem_ctrls.avgWrQLen                      27.45                       # Average write queue length when enqueuing
system.mem_ctrls.readRowHits                  8095275                       # Number of row buffer hits during reads
system.mem_ctrls.writeRowHits                 3055828                       # Number of row buffer hits during writes
system.mem_ctrls.readRowHitRate                 59.74                       # Row buffer hit rate for reads
system.mem_ctrls.writeRowHitRate                35.33                       # Row buffer hit rate for writes
system.mem_ctrls.avgGap                      22724.18                       # Average gap between requests
system.mem_ctrls.pageHitRate                    50.23                       # Row buffer hit rate, read and write combined
system.mem_ctrls_0.actEnergy              41840200080                       # Energy for activate commands per rank (pJ)
system.mem_ctrls_0.preEnergy              22829474250                       # Energy for precharge commands per rank (pJ)
system.mem_ctrls_0.readEnergy             52582241400                       # Energy for read commands per rank (pJ)
system.mem_ctrls_0.writeEnergy            28332043920                       # Energy for write commands per rank (pJ)
system.mem_ctrls_0.refreshEnergy          33003001200                       # Energy for refresh commands per rank (pJ)
system.mem_ctrls_0.actBackEnergy         339144912180                       # Energy for active background per rank (pJ)
system.mem_ctrls_0.preBackEnergy           5677835250                       # Energy for precharge background per rank (pJ)
system.mem_ctrls_0.totalEnergy           523409708280                       # Total energy per rank (pJ)
system.mem_ctrls_0.averagePower           1035.862162                       # Core power per rank (mW)
system.mem_ctrls_0.memoryStateTime::IDLE   7234642428                       # Time in different power states
system.mem_ctrls_0.memoryStateTime::REF   16849560000                       # Time in different power states
system.mem_ctrls_0.memoryStateTime::PRE_PDN            0                       # Time in different power states
system.mem_ctrls_0.memoryStateTime::ACT  480511834572                       # Time in different power states
system.mem_ctrls_0.memoryStateTime::ACT_PDN            0                       # Time in different power states
system.mem_ctrls_1.actEnergy              41735259720                       # Energy for activate commands per rank (pJ)
system.mem_ctrls_1.preEnergy              22772215125                       # Energy for precharge commands per rank (pJ)
system.mem_ctrls_1.readEnergy             53271691200                       # Energy for read commands per rank (pJ)
system.mem_ctrls_1.writeEnergy            27709873200                       # Energy for write commands per rank (pJ)
system.mem_ctrls_1.refreshEnergy          33003001200                       # Energy for refresh commands per rank (pJ)
system.mem_ctrls_1.actBackEnergy         340387673490                       # Energy for active background per rank (pJ)
system.mem_ctrls_1.preBackEnergy           4587699000                       # Energy for precharge background per rank (pJ)
system.mem_ctrls_1.totalEnergy           523467412935                       # Total energy per rank (pJ)
system.mem_ctrls_1.averagePower           1035.976346                       # Core power per rank (mW)
system.mem_ctrls_1.memoryStateTime::IDLE   5439312908                       # Time in different power states
system.mem_ctrls_1.memoryStateTime::REF   16849560000                       # Time in different power states
system.mem_ctrls_1.memoryStateTime::PRE_PDN            0                       # Time in different power states
system.mem_ctrls_1.memoryStateTime::ACT  482306853592                       # Time in different power states
system.mem_ctrls_1.memoryStateTime::ACT_PDN            0                       # Time in different power states
system.realview.nvmem.pwrStateResidencyTicks::UNDEFINED 3741139997500                       # Cumulative time (in ticks) in various power states
system.realview.vram.pwrStateResidencyTicks::UNDEFINED 3741139997500                       # Cumulative time (in ticks) in various power states
system.pwrStateResidencyTicks::UNDEFINED 3741139997500                       # Cumulative time (in ticks) in various power states
system.bridge.pwrStateResidencyTicks::UNDEFINED 3741139997500                       # Cumulative time (in ticks) in various power states
system.cf0.dma_read_full_pages                      0                       # Number of full page size DMA reads (not PRD).
system.cf0.dma_read_bytes                           0                       # Number of bytes transfered via DMA reads (not PRD).
system.cf0.dma_read_txs                             0                       # Number of DMA read transactions (not PRD).
system.cf0.dma_write_full_pages                  2334                       # Number of full page size DMA writes.
system.cf0.dma_write_bytes                    9636864                       # Number of bytes transfered via DMA writes.
system.cf0.dma_write_txs                         2404                       # Number of DMA write transactions.
system.cpu_voltage_domain.voltage                   1                       # Voltage in Volts
system.cpu_clk_domain.clock                       500                       # Clock period in ticks
system.cpu0.dstage2_mmu.stage2_tlb.walker.pwrStateResidencyTicks::UNDEFINED 3741139997500                       # Cumulative time (in ticks) in various power states
system.cpu0.dstage2_mmu.stage2_tlb.walker.walks            0                       # Table walker walks requested
system.cpu0.dstage2_mmu.stage2_tlb.walker.walkRequestOrigin_Requested::Data            0                       # Table walker requests started/completed, data/inst
system.cpu0.dstage2_mmu.stage2_tlb.walker.walkRequestOrigin_Requested::Inst            0                       # Table walker requests started/completed, data/inst
system.cpu0.dstage2_mmu.stage2_tlb.walker.walkRequestOrigin_Requested::total            0                       # Table walker requests started/completed, data/inst
system.cpu0.dstage2_mmu.stage2_tlb.walker.walkRequestOrigin_Completed::Data            0                       # Table walker requests started/completed, data/inst
system.cpu0.dstage2_mmu.stage2_tlb.walker.walkRequestOrigin_Completed::Inst            0                       # Table walker requests started/completed, data/inst
system.cpu0.dstage2_mmu.stage2_tlb.walker.walkRequestOrigin_Completed::total            0                       # Table walker requests started/completed, data/inst
system.cpu0.dstage2_mmu.stage2_tlb.walker.walkRequestOrigin::total            0                       # Table walker requests started/completed, data/inst
system.cpu0.dstage2_mmu.stage2_tlb.inst_hits            0                       # ITB inst hits
system.cpu0.dstage2_mmu.stage2_tlb.inst_misses            0                       # ITB inst misses
system.cpu0.dstage2_mmu.stage2_tlb.read_hits            0                       # DTB read hits
system.cpu0.dstage2_mmu.stage2_tlb.read_misses            0                       # DTB read misses
system.cpu0.dstage2_mmu.stage2_tlb.write_hits            0                       # DTB write hits
system.cpu0.dstage2_mmu.stage2_tlb.write_misses            0                       # DTB write misses
system.cpu0.dstage2_mmu.stage2_tlb.flush_tlb            0                       # Number of times complete TLB was flushed
system.cpu0.dstage2_mmu.stage2_tlb.flush_tlb_mva            0                       # Number of times TLB was flushed by MVA
system.cpu0.dstage2_mmu.stage2_tlb.flush_tlb_mva_asid            0                       # Number of times TLB was flushed by MVA & ASID
system.cpu0.dstage2_mmu.stage2_tlb.flush_tlb_asid            0                       # Number of times TLB was flushed by ASID
system.cpu0.dstage2_mmu.stage2_tlb.flush_entries            0                       # Number of entries that have been flushed from TLB
system.cpu0.dstage2_mmu.stage2_tlb.align_faults            0                       # Number of TLB faults due to alignment restrictions
system.cpu0.dstage2_mmu.stage2_tlb.prefetch_faults            0                       # Number of TLB faults due to prefetch
system.cpu0.dstage2_mmu.stage2_tlb.domain_faults            0                       # Number of TLB faults due to domain restrictions
system.cpu0.dstage2_mmu.stage2_tlb.perms_faults            0                       # Number of TLB faults due to permissions restrictions
system.cpu0.dstage2_mmu.stage2_tlb.read_accesses            0                       # DTB read accesses
system.cpu0.dstage2_mmu.stage2_tlb.write_accesses            0                       # DTB write accesses
system.cpu0.dstage2_mmu.stage2_tlb.inst_accesses            0                       # ITB inst accesses
system.cpu0.dstage2_mmu.stage2_tlb.hits             0                       # DTB hits
system.cpu0.dstage2_mmu.stage2_tlb.misses            0                       # DTB misses
system.cpu0.dstage2_mmu.stage2_tlb.accesses            0                       # DTB accesses
system.cpu0.dtb.walker.pwrStateResidencyTicks::UNDEFINED 3741139997500                       # Cumulative time (in ticks) in various power states
system.cpu0.dtb.walker.walks                        0                       # Table walker walks requested
system.cpu0.dtb.walker.walkRequestOrigin_Requested::Data            0                       # Table walker requests started/completed, data/inst
system.cpu0.dtb.walker.walkRequestOrigin_Requested::Inst            0                       # Table walker requests started/completed, data/inst
system.cpu0.dtb.walker.walkRequestOrigin_Requested::total            0                       # Table walker requests started/completed, data/inst
system.cpu0.dtb.walker.walkRequestOrigin_Completed::Data            0                       # Table walker requests started/completed, data/inst
system.cpu0.dtb.walker.walkRequestOrigin_Completed::Inst            0                       # Table walker requests started/completed, data/inst
system.cpu0.dtb.walker.walkRequestOrigin_Completed::total            0                       # Table walker requests started/completed, data/inst
system.cpu0.dtb.walker.walkRequestOrigin::total            0                       # Table walker requests started/completed, data/inst
system.cpu0.dtb.inst_hits                           0                       # ITB inst hits
system.cpu0.dtb.inst_misses                         0                       # ITB inst misses
system.cpu0.dtb.read_hits                           0                       # DTB read hits
system.cpu0.dtb.read_misses                         0                       # DTB read misses
system.cpu0.dtb.write_hits                          0                       # DTB write hits
system.cpu0.dtb.write_misses                        0                       # DTB write misses
system.cpu0.dtb.flush_tlb                           0                       # Number of times complete TLB was flushed
system.cpu0.dtb.flush_tlb_mva                       0                       # Number of times TLB was flushed by MVA
system.cpu0.dtb.flush_tlb_mva_asid                  0                       # Number of times TLB was flushed by MVA & ASID
system.cpu0.dtb.flush_tlb_asid                      0                       # Number of times TLB was flushed by ASID
system.cpu0.dtb.flush_entries                       0                       # Number of entries that have been flushed from TLB
system.cpu0.dtb.align_faults                        0                       # Number of TLB faults due to alignment restrictions
system.cpu0.dtb.prefetch_faults                     0                       # Number of TLB faults due to prefetch
system.cpu0.dtb.domain_faults                       0                       # Number of TLB faults due to domain restrictions
system.cpu0.dtb.perms_faults                        0                       # Number of TLB faults due to permissions restrictions
system.cpu0.dtb.read_accesses                       0                       # DTB read accesses
system.cpu0.dtb.write_accesses                      0                       # DTB write accesses
system.cpu0.dtb.inst_accesses                       0                       # ITB inst accesses
system.cpu0.dtb.hits                                0                       # DTB hits
system.cpu0.dtb.misses                              0                       # DTB misses
system.cpu0.dtb.accesses                            0                       # DTB accesses
system.cpu0.istage2_mmu.stage2_tlb.walker.pwrStateResidencyTicks::UNDEFINED 3741139997500                       # Cumulative time (in ticks) in various power states
system.cpu0.istage2_mmu.stage2_tlb.walker.walks            0                       # Table walker walks requested
system.cpu0.istage2_mmu.stage2_tlb.walker.walkRequestOrigin_Requested::Data            0                       # Table walker requests started/completed, data/inst
system.cpu0.istage2_mmu.stage2_tlb.walker.walkRequestOrigin_Requested::Inst            0                       # Table walker requests started/completed, data/inst
system.cpu0.istage2_mmu.stage2_tlb.walker.walkRequestOrigin_Requested::total            0                       # Table walker requests started/completed, data/inst
system.cpu0.istage2_mmu.stage2_tlb.walker.walkRequestOrigin_Completed::Data            0                       # Table walker requests started/completed, data/inst
system.cpu0.istage2_mmu.stage2_tlb.walker.walkRequestOrigin_Completed::Inst            0                       # Table walker requests started/completed, data/inst
system.cpu0.istage2_mmu.stage2_tlb.walker.walkRequestOrigin_Completed::total            0                       # Table walker requests started/completed, data/inst
system.cpu0.istage2_mmu.stage2_tlb.walker.walkRequestOrigin::total            0                       # Table walker requests started/completed, data/inst
system.cpu0.istage2_mmu.stage2_tlb.inst_hits            0                       # ITB inst hits
system.cpu0.istage2_mmu.stage2_tlb.inst_misses            0                       # ITB inst misses
system.cpu0.istage2_mmu.stage2_tlb.read_hits            0                       # DTB read hits
system.cpu0.istage2_mmu.stage2_tlb.read_misses            0                       # DTB read misses
system.cpu0.istage2_mmu.stage2_tlb.write_hits            0                       # DTB write hits
system.cpu0.istage2_mmu.stage2_tlb.write_misses            0                       # DTB write misses
system.cpu0.istage2_mmu.stage2_tlb.flush_tlb            0                       # Number of times complete TLB was flushed
system.cpu0.istage2_mmu.stage2_tlb.flush_tlb_mva            0                       # Number of times TLB was flushed by MVA
system.cpu0.istage2_mmu.stage2_tlb.flush_tlb_mva_asid            0                       # Number of times TLB was flushed by MVA & ASID
system.cpu0.istage2_mmu.stage2_tlb.flush_tlb_asid            0                       # Number of times TLB was flushed by ASID
system.cpu0.istage2_mmu.stage2_tlb.flush_entries            0                       # Number of entries that have been flushed from TLB
system.cpu0.istage2_mmu.stage2_tlb.align_faults            0                       # Number of TLB faults due to alignment restrictions
system.cpu0.istage2_mmu.stage2_tlb.prefetch_faults            0                       # Number of TLB faults due to prefetch
system.cpu0.istage2_mmu.stage2_tlb.domain_faults            0                       # Number of TLB faults due to domain restrictions
system.cpu0.istage2_mmu.stage2_tlb.perms_faults            0                       # Number of TLB faults due to permissions restrictions
system.cpu0.istage2_mmu.stage2_tlb.read_accesses            0                       # DTB read accesses
system.cpu0.istage2_mmu.stage2_tlb.write_accesses            0                       # DTB write accesses
system.cpu0.istage2_mmu.stage2_tlb.inst_accesses            0                       # ITB inst accesses
system.cpu0.istage2_mmu.stage2_tlb.hits             0                       # DTB hits
system.cpu0.istage2_mmu.stage2_tlb.misses            0                       # DTB misses
system.cpu0.istage2_mmu.stage2_tlb.accesses            0                       # DTB accesses
system.cpu0.itb.walker.pwrStateResidencyTicks::UNDEFINED 3741139997500                       # Cumulative time (in ticks) in various power states
system.cpu0.itb.walker.walks                        0                       # Table walker walks requested
system.cpu0.itb.walker.walkRequestOrigin_Requested::Data            0                       # Table walker requests started/completed, data/inst
system.cpu0.itb.walker.walkRequestOrigin_Requested::Inst            0                       # Table walker requests started/completed, data/inst
system.cpu0.itb.walker.walkRequestOrigin_Requested::total            0                       # Table walker requests started/completed, data/inst
system.cpu0.itb.walker.walkRequestOrigin_Completed::Data            0                       # Table walker requests started/completed, data/inst
system.cpu0.itb.walker.walkRequestOrigin_Completed::Inst            0                       # Table walker requests started/completed, data/inst
system.cpu0.itb.walker.walkRequestOrigin_Completed::total            0                       # Table walker requests started/completed, data/inst
system.cpu0.itb.walker.walkRequestOrigin::total            0                       # Table walker requests started/completed, data/inst
system.cpu0.itb.inst_hits                           0                       # ITB inst hits
system.cpu0.itb.inst_misses                         0                       # ITB inst misses
system.cpu0.itb.read_hits                           0                       # DTB read hits
system.cpu0.itb.read_misses                         0                       # DTB read misses
system.cpu0.itb.write_hits                          0                       # DTB write hits
system.cpu0.itb.write_misses                        0                       # DTB write misses
system.cpu0.itb.flush_tlb                           0                       # Number of times complete TLB was flushed
system.cpu0.itb.flush_tlb_mva                       0                       # Number of times TLB was flushed by MVA
system.cpu0.itb.flush_tlb_mva_asid                  0                       # Number of times TLB was flushed by MVA & ASID
system.cpu0.itb.flush_tlb_asid                      0                       # Number of times TLB was flushed by ASID
system.cpu0.itb.flush_entries                       0                       # Number of entries that have been flushed from TLB
system.cpu0.itb.align_faults                        0                       # Number of TLB faults due to alignment restrictions
system.cpu0.itb.prefetch_faults                     0                       # Number of TLB faults due to prefetch
system.cpu0.itb.domain_faults                       0                       # Number of TLB faults due to domain restrictions
system.cpu0.itb.perms_faults                        0                       # Number of TLB faults due to permissions restrictions
system.cpu0.itb.read_accesses                       0                       # DTB read accesses
system.cpu0.itb.write_accesses                      0                       # DTB write accesses
system.cpu0.itb.inst_accesses                       0                       # ITB inst accesses
system.cpu0.itb.hits                                0                       # DTB hits
system.cpu0.itb.misses                              0                       # DTB misses
system.cpu0.itb.accesses                            0                       # DTB accesses
system.cpu0.pwrStateResidencyTicks::ON   505292802000                       # Cumulative time (in ticks) in various power states
system.cpu0.numCycles                               0                       # number of cpu cycles simulated
system.cpu0.numWorkItemsStarted                     0                       # number of work items this cpu started
system.cpu0.numWorkItemsCompleted                   0                       # number of work items this cpu completed
system.cpu0.kern.inst.arm                           0                       # number of arm instructions executed
system.cpu0.kern.inst.quiesce                     345                       # number of quiesce instructions executed
system.cpu0.committedInsts                          0                       # Number of instructions committed
system.cpu0.committedOps                            0                       # Number of ops (including micro ops) committed
system.cpu0.num_int_alu_accesses                    0                       # Number of integer alu accesses
system.cpu0.num_fp_alu_accesses                     0                       # Number of float alu accesses
system.cpu0.num_func_calls                          0                       # number of times a function call or return occured
system.cpu0.num_conditional_control_insts            0                       # number of instructions that are conditional controls
system.cpu0.num_int_insts                           0                       # number of integer instructions
system.cpu0.num_fp_insts                            0                       # number of float instructions
system.cpu0.num_int_register_reads                  0                       # number of times the integer registers were read
system.cpu0.num_int_register_writes                 0                       # number of times the integer registers were written
system.cpu0.num_fp_register_reads                   0                       # number of times the floating registers were read
system.cpu0.num_fp_register_writes                  0                       # number of times the floating registers were written
system.cpu0.num_mem_refs                            0                       # number of memory refs
system.cpu0.num_load_insts                          0                       # Number of load instructions
system.cpu0.num_store_insts                         0                       # Number of store instructions
system.cpu0.num_idle_cycles                         0                       # Number of idle cycles
system.cpu0.num_busy_cycles                         0                       # Number of busy cycles
system.cpu0.not_idle_fraction                       0                       # Percentage of non-idle cycles
system.cpu0.idle_fraction                           1                       # Percentage of idle cycles
system.cpu0.op_class::No_OpClass                    0                       # Class of executed instruction
system.cpu0.op_class::IntAlu                        0                       # Class of executed instruction
system.cpu0.op_class::IntMult                       0                       # Class of executed instruction
system.cpu0.op_class::IntDiv                        0                       # Class of executed instruction
system.cpu0.op_class::FloatAdd                      0                       # Class of executed instruction
system.cpu0.op_class::FloatCmp                      0                       # Class of executed instruction
system.cpu0.op_class::FloatCvt                      0                       # Class of executed instruction
system.cpu0.op_class::FloatMult                     0                       # Class of executed instruction
system.cpu0.op_class::FloatDiv                      0                       # Class of executed instruction
system.cpu0.op_class::FloatSqrt                     0                       # Class of executed instruction
system.cpu0.op_class::SimdAdd                       0                       # Class of executed instruction
system.cpu0.op_class::SimdAddAcc                    0                       # Class of executed instruction
system.cpu0.op_class::SimdAlu                       0                       # Class of executed instruction
system.cpu0.op_class::SimdCmp                       0                       # Class of executed instruction
system.cpu0.op_class::SimdCvt                       0                       # Class of executed instruction
system.cpu0.op_class::SimdMisc                      0                       # Class of executed instruction
system.cpu0.op_class::SimdMult                      0                       # Class of executed instruction
system.cpu0.op_class::SimdMultAcc                   0                       # Class of executed instruction
system.cpu0.op_class::SimdShift                     0                       # Class of executed instruction
system.cpu0.op_class::SimdShiftAcc                  0                       # Class of executed instruction
system.cpu0.op_class::SimdSqrt                      0                       # Class of executed instruction
system.cpu0.op_class::SimdFloatAdd                  0                       # Class of executed instruction
system.cpu0.op_class::SimdFloatAlu                  0                       # Class of executed instruction
system.cpu0.op_class::SimdFloatCmp                  0                       # Class of executed instruction
system.cpu0.op_class::SimdFloatCvt                  0                       # Class of executed instruction
system.cpu0.op_class::SimdFloatDiv                  0                       # Class of executed instruction
system.cpu0.op_class::SimdFloatMisc                 0                       # Class of executed instruction
system.cpu0.op_class::SimdFloatMult                 0                       # Class of executed instruction
system.cpu0.op_class::SimdFloatMultAcc              0                       # Class of executed instruction
system.cpu0.op_class::SimdFloatSqrt                 0                       # Class of executed instruction
system.cpu0.op_class::MemRead                       0                       # Class of executed instruction
system.cpu0.op_class::MemWrite                      0                       # Class of executed instruction
system.cpu0.op_class::IprAccess                     0                       # Class of executed instruction
system.cpu0.op_class::InstPrefetch                  0                       # Class of executed instruction
system.cpu0.op_class::total                         0                       # Class of executed instruction
system.cpu0.dcache.tags.pwrStateResidencyTicks::UNDEFINED 3741139997500                       # Cumulative time (in ticks) in various power states
system.cpu0.dcache.tags.replacements         12135323                       # number of replacements
system.cpu0.dcache.tags.tagsinuse         1021.744056                       # Cycle average of tags in use
system.cpu0.dcache.tags.total_refs          144137870                       # Total number of references to valid blocks.
system.cpu0.dcache.tags.sampled_refs         12136186                       # Sample count of references to valid blocks.
system.cpu0.dcache.tags.avg_refs            11.876702                       # Average number of references to valid blocks.
system.cpu0.dcache.tags.warmup_cycle     3237904970000                       # Cycle when the warmup percentage was hit.
system.cpu0.dcache.tags.occ_blocks::switch_cpus0.data  1021.744056                       # Average occupied blocks per requestor
system.cpu0.dcache.tags.occ_percent::switch_cpus0.data     0.997797                       # Average percentage of cache occupancy
system.cpu0.dcache.tags.occ_percent::total     0.997797                       # Average percentage of cache occupancy
system.cpu0.dcache.tags.occ_task_id_blocks::1024          863                       # Occupied blocks per task id
system.cpu0.dcache.tags.age_task_id_blocks_1024::2          863                       # Occupied blocks per task id
system.cpu0.dcache.tags.occ_task_id_percent::1024     0.842773                       # Percentage of cache occupancy per task id
system.cpu0.dcache.tags.tag_accesses        354451489                       # Number of tag accesses
system.cpu0.dcache.tags.data_accesses       354451489                       # Number of data accesses
system.cpu0.dcache.pwrStateResidencyTicks::UNDEFINED 3741139997500                       # Cumulative time (in ticks) in various power states
system.cpu0.dcache.ReadReq_hits::switch_cpus0.data     97576637                       # number of ReadReq hits
system.cpu0.dcache.ReadReq_hits::total       97576637                       # number of ReadReq hits
system.cpu0.dcache.WriteReq_hits::switch_cpus0.data     46050976                       # number of WriteReq hits
system.cpu0.dcache.WriteReq_hits::total      46050976                       # number of WriteReq hits
system.cpu0.dcache.SoftPFReq_hits::switch_cpus0.data        35275                       # number of SoftPFReq hits
system.cpu0.dcache.SoftPFReq_hits::total        35275                       # number of SoftPFReq hits
system.cpu0.dcache.LoadLockedReq_hits::switch_cpus0.data       229134                       # number of LoadLockedReq hits
system.cpu0.dcache.LoadLockedReq_hits::total       229134                       # number of LoadLockedReq hits
system.cpu0.dcache.StoreCondReq_hits::switch_cpus0.data       227130                       # number of StoreCondReq hits
system.cpu0.dcache.StoreCondReq_hits::total       227130                       # number of StoreCondReq hits
system.cpu0.dcache.demand_hits::switch_cpus0.data    143627613                       # number of demand (read+write) hits
system.cpu0.dcache.demand_hits::total       143627613                       # number of demand (read+write) hits
system.cpu0.dcache.overall_hits::switch_cpus0.data    143662888                       # number of overall hits
system.cpu0.dcache.overall_hits::total      143662888                       # number of overall hits
system.cpu0.dcache.ReadReq_misses::switch_cpus0.data     25713824                       # number of ReadReq misses
system.cpu0.dcache.ReadReq_misses::total     25713824                       # number of ReadReq misses
system.cpu0.dcache.WriteReq_misses::switch_cpus0.data      1264331                       # number of WriteReq misses
system.cpu0.dcache.WriteReq_misses::total      1264331                       # number of WriteReq misses
system.cpu0.dcache.SoftPFReq_misses::switch_cpus0.data        47212                       # number of SoftPFReq misses
system.cpu0.dcache.SoftPFReq_misses::total        47212                       # number of SoftPFReq misses
system.cpu0.dcache.LoadLockedReq_misses::switch_cpus0.data         3967                       # number of LoadLockedReq misses
system.cpu0.dcache.LoadLockedReq_misses::total         3967                       # number of LoadLockedReq misses
system.cpu0.dcache.StoreCondReq_misses::switch_cpus0.data         4385                       # number of StoreCondReq misses
system.cpu0.dcache.StoreCondReq_misses::total         4385                       # number of StoreCondReq misses
system.cpu0.dcache.demand_misses::switch_cpus0.data     26978155                       # number of demand (read+write) misses
system.cpu0.dcache.demand_misses::total      26978155                       # number of demand (read+write) misses
system.cpu0.dcache.overall_misses::switch_cpus0.data     27025367                       # number of overall misses
system.cpu0.dcache.overall_misses::total     27025367                       # number of overall misses
system.cpu0.dcache.ReadReq_miss_latency::switch_cpus0.data 1318900565500                       # number of ReadReq miss cycles
system.cpu0.dcache.ReadReq_miss_latency::total 1318900565500                       # number of ReadReq miss cycles
system.cpu0.dcache.WriteReq_miss_latency::switch_cpus0.data  29387390155                       # number of WriteReq miss cycles
system.cpu0.dcache.WriteReq_miss_latency::total  29387390155                       # number of WriteReq miss cycles
system.cpu0.dcache.LoadLockedReq_miss_latency::switch_cpus0.data    129596500                       # number of LoadLockedReq miss cycles
system.cpu0.dcache.LoadLockedReq_miss_latency::total    129596500                       # number of LoadLockedReq miss cycles
system.cpu0.dcache.StoreCondReq_miss_latency::switch_cpus0.data     27932500                       # number of StoreCondReq miss cycles
system.cpu0.dcache.StoreCondReq_miss_latency::total     27932500                       # number of StoreCondReq miss cycles
system.cpu0.dcache.StoreCondFailReq_miss_latency::switch_cpus0.data        28500                       # number of StoreCondFailReq miss cycles
system.cpu0.dcache.StoreCondFailReq_miss_latency::total        28500                       # number of StoreCondFailReq miss cycles
system.cpu0.dcache.demand_miss_latency::switch_cpus0.data 1348287955655                       # number of demand (read+write) miss cycles
system.cpu0.dcache.demand_miss_latency::total 1348287955655                       # number of demand (read+write) miss cycles
system.cpu0.dcache.overall_miss_latency::switch_cpus0.data 1348287955655                       # number of overall miss cycles
system.cpu0.dcache.overall_miss_latency::total 1348287955655                       # number of overall miss cycles
system.cpu0.dcache.ReadReq_accesses::switch_cpus0.data    123290461                       # number of ReadReq accesses(hits+misses)
system.cpu0.dcache.ReadReq_accesses::total    123290461                       # number of ReadReq accesses(hits+misses)
system.cpu0.dcache.WriteReq_accesses::switch_cpus0.data     47315307                       # number of WriteReq accesses(hits+misses)
system.cpu0.dcache.WriteReq_accesses::total     47315307                       # number of WriteReq accesses(hits+misses)
system.cpu0.dcache.SoftPFReq_accesses::switch_cpus0.data        82487                       # number of SoftPFReq accesses(hits+misses)
system.cpu0.dcache.SoftPFReq_accesses::total        82487                       # number of SoftPFReq accesses(hits+misses)
system.cpu0.dcache.LoadLockedReq_accesses::switch_cpus0.data       233101                       # number of LoadLockedReq accesses(hits+misses)
system.cpu0.dcache.LoadLockedReq_accesses::total       233101                       # number of LoadLockedReq accesses(hits+misses)
system.cpu0.dcache.StoreCondReq_accesses::switch_cpus0.data       231515                       # number of StoreCondReq accesses(hits+misses)
system.cpu0.dcache.StoreCondReq_accesses::total       231515                       # number of StoreCondReq accesses(hits+misses)
system.cpu0.dcache.demand_accesses::switch_cpus0.data    170605768                       # number of demand (read+write) accesses
system.cpu0.dcache.demand_accesses::total    170605768                       # number of demand (read+write) accesses
system.cpu0.dcache.overall_accesses::switch_cpus0.data    170688255                       # number of overall (read+write) accesses
system.cpu0.dcache.overall_accesses::total    170688255                       # number of overall (read+write) accesses
system.cpu0.dcache.ReadReq_miss_rate::switch_cpus0.data     0.208563                       # miss rate for ReadReq accesses
system.cpu0.dcache.ReadReq_miss_rate::total     0.208563                       # miss rate for ReadReq accesses
system.cpu0.dcache.WriteReq_miss_rate::switch_cpus0.data     0.026721                       # miss rate for WriteReq accesses
system.cpu0.dcache.WriteReq_miss_rate::total     0.026721                       # miss rate for WriteReq accesses
system.cpu0.dcache.SoftPFReq_miss_rate::switch_cpus0.data     0.572357                       # miss rate for SoftPFReq accesses
system.cpu0.dcache.SoftPFReq_miss_rate::total     0.572357                       # miss rate for SoftPFReq accesses
system.cpu0.dcache.LoadLockedReq_miss_rate::switch_cpus0.data     0.017018                       # miss rate for LoadLockedReq accesses
system.cpu0.dcache.LoadLockedReq_miss_rate::total     0.017018                       # miss rate for LoadLockedReq accesses
system.cpu0.dcache.StoreCondReq_miss_rate::switch_cpus0.data     0.018940                       # miss rate for StoreCondReq accesses
system.cpu0.dcache.StoreCondReq_miss_rate::total     0.018940                       # miss rate for StoreCondReq accesses
system.cpu0.dcache.demand_miss_rate::switch_cpus0.data     0.158132                       # miss rate for demand accesses
system.cpu0.dcache.demand_miss_rate::total     0.158132                       # miss rate for demand accesses
system.cpu0.dcache.overall_miss_rate::switch_cpus0.data     0.158332                       # miss rate for overall accesses
system.cpu0.dcache.overall_miss_rate::total     0.158332                       # miss rate for overall accesses
system.cpu0.dcache.ReadReq_avg_miss_latency::switch_cpus0.data 51291.498515                       # average ReadReq miss latency
system.cpu0.dcache.ReadReq_avg_miss_latency::total 51291.498515                       # average ReadReq miss latency
system.cpu0.dcache.WriteReq_avg_miss_latency::switch_cpus0.data 23243.430838                       # average WriteReq miss latency
system.cpu0.dcache.WriteReq_avg_miss_latency::total 23243.430838                       # average WriteReq miss latency
system.cpu0.dcache.LoadLockedReq_avg_miss_latency::switch_cpus0.data 32668.641291                       # average LoadLockedReq miss latency
system.cpu0.dcache.LoadLockedReq_avg_miss_latency::total 32668.641291                       # average LoadLockedReq miss latency
system.cpu0.dcache.StoreCondReq_avg_miss_latency::switch_cpus0.data  6370.011403                       # average StoreCondReq miss latency
system.cpu0.dcache.StoreCondReq_avg_miss_latency::total  6370.011403                       # average StoreCondReq miss latency
[...]
system.switch_cpus3.commit.op_class_0::SimdFloatAlu            0      0.00%     64.72% # Class of committed instruction
system.switch_cpus3.commit.op_class_0::SimdFloatCmp            5      0.00%     64.72% # Class of committed instruction
system.switch_cpus3.commit.op_class_0::SimdFloatCvt            4      0.00%     64.72% # Class of committed instruction
system.switch_cpus3.commit.op_class_0::SimdFloatDiv            0      0.00%     64.72% # Class of committed instruction
system.switch_cpus3.commit.op_class_0::SimdFloatMisc          846      0.00%     64.72% # Class of committed instruction
system.switch_cpus3.commit.op_class_0::SimdFloatMult            2      0.00%     64.72% # Class of committed instruction
system.switch_cpus3.commit.op_class_0::SimdFloatMultAcc            0      0.00%     64.72% # Class of committed instruction
system.switch_cpus3.commit.op_class_0::SimdFloatSqrt            0      0.00%     64.72% # Class of committed instruction
system.switch_cpus3.commit.op_class_0::MemRead    205457085     17.76%     82.48% # Class of committed instruction
system.switch_cpus3.commit.op_class_0::MemWrite    202611657     17.52%    100.00% # Class of committed instruction
system.switch_cpus3.commit.op_class_0::IprAccess            0      0.00%    100.00% # Class of committed instruction
system.switch_cpus3.commit.op_class_0::InstPrefetch            0      0.00%    100.00% # Class of committed instruction
system.switch_cpus3.commit.op_class_0::total   1156765145                       # Class of committed instruction
system.switch_cpus3.commit.bw_lim_events     25716809                       # number cycles where commit BW limit reached
system.switch_cpus3.rob.rob_reads          2136828180                       # The number of ROB reads
system.switch_cpus3.rob.rob_writes         2589482790                       # The number of ROB writes
system.switch_cpus3.timesIdled                 718970                       # Number of times that the entire CPU went into an idle state and unscheduled itself
system.switch_cpus3.idleCycles               97608324                       # Total number of cycles that the CPU has spent unscheduled due to idling
system.switch_cpus3.quiesceCycles             8568076                       # Total number of cycles that CPU has spent quiesced or waiting for an interrupt
system.switch_cpus3.committedInsts          929011012                       # Number of Instructions Simulated
system.switch_cpus3.committedOps           1156735221                       # Number of Ops (including micro ops) Simulated
system.switch_cpus3.cpi                      1.077087                       # CPI: Cycles Per Instruction
system.switch_cpus3.cpi_total                1.077087                       # CPI: Total CPI of All Threads
system.switch_cpus3.ipc                      0.928430                       # IPC: Instructions Per Cycle
system.switch_cpus3.ipc_total                0.928430                       # IPC: Total IPC of All Threads
system.switch_cpus3.int_regfile_reads      1371342049                       # number of integer regfile reads
system.switch_cpus3.int_regfile_writes      708177065                       # number of integer regfile writes
system.switch_cpus3.fp_regfile_reads             4089                       # number of floating regfile reads
system.switch_cpus3.fp_regfile_writes            2334                       # number of floating regfile writes
system.switch_cpus3.cc_regfile_reads       4294692612                       # number of cc regfile reads
system.switch_cpus3.cc_regfile_writes       679391193                       # number of cc regfile writes
system.switch_cpus3.misc_regfile_reads     2229340752                       # number of misc regfile reads
system.switch_cpus3.misc_regfile_writes       3925330                       # number of misc regfile writes
system.tol2bus.snoop_filter.tot_requests     69203111                       # Total number of requests made to the snoop filter.
system.tol2bus.snoop_filter.hit_single_requests     34343499                       # Number of requests hitting in the snoop filter with a single holder of the requested data.
system.tol2bus.snoop_filter.hit_multi_requests      1773934                       # Number of requests hitting in the snoop filter with multiple (>1) holders of the requested data.
system.tol2bus.snoop_filter.tot_snoops         115478                       # Total number of snoops made to the snoop filter.
system.tol2bus.snoop_filter.hit_single_snoops       112073                       # Number of snoops hitting in the snoop filter with a single holder of the requested data.
system.tol2bus.snoop_filter.hit_multi_snoops         3405                       # Number of snoops hitting in the snoop filter with multiple (>1) holders of the requested data.
system.tol2bus.pwrStateResidencyTicks::UNDEFINED 3741139997500                       # Cumulative time (in ticks) in various power states
system.tol2bus.trans_dist::ReadReq               4502                       # Transaction distribution
system.tol2bus.trans_dist::ReadResp          27136391                       # Transaction distribution
system.tol2bus.trans_dist::WriteReq              5411                       # Transaction distribution
system.tol2bus.trans_dist::WriteResp             5411                       # Transaction distribution
system.tol2bus.trans_dist::WritebackDirty     20630842                       # Transaction distribution
system.tol2bus.trans_dist::WritebackClean     22307635                       # Transaction distribution
system.tol2bus.trans_dist::CleanEvict         3710576                       # Transaction distribution
system.tol2bus.trans_dist::HardPFReq         10041498                       # Transaction distribution
system.tol2bus.trans_dist::UpgradeReq          131921                       # Transaction distribution
system.tol2bus.trans_dist::SCUpgradeReq         15861                       # Transaction distribution
system.tol2bus.trans_dist::UpgradeResp         147782                       # Transaction distribution
system.tol2bus.trans_dist::SCUpgradeFailReq            4                       # Transaction distribution
system.tol2bus.trans_dist::UpgradeFailResp            4                       # Transaction distribution
system.tol2bus.trans_dist::ReadExReq          7480647                       # Transaction distribution
system.tol2bus.trans_dist::ReadExResp         7480647                       # Transaction distribution
system.tol2bus.trans_dist::ReadCleanReq      13865903                       # Transaction distribution
system.tol2bus.trans_dist::ReadSharedReq     13266035                       # Transaction distribution
system.tol2bus.trans_dist::InvalidateReq         6271                       # Transaction distribution
system.tol2bus.pkt_count_system.cpu0.icache.mem_side::system.l2.cpu_side      1143927                       # Packet count per connected master and slave (bytes)
system.tol2bus.pkt_count_system.cpu0.dcache.mem_side::system.l2.cpu_side     36443322                       # Packet count per connected master and slave (bytes)
system.tol2bus.pkt_count_system.cpu0.itb_walker_cache.mem_side::system.l2.cpu_side         1785                       # Packet count per connected master and slave (bytes)
system.tol2bus.pkt_count_system.cpu0.dtb_walker_cache.mem_side::system.l2.cpu_side      4546557                       # Packet count per connected master and slave (bytes)
system.tol2bus.pkt_count_system.cpu1.icache.mem_side::system.l2.cpu_side      3824314                       # Packet count per connected master and slave (bytes)
system.tol2bus.pkt_count_system.cpu1.dcache.mem_side::system.l2.cpu_side       997424                       # Packet count per connected master and slave (bytes)
system.tol2bus.pkt_count_system.cpu1.itb_walker_cache.mem_side::system.l2.cpu_side         9170                       # Packet count per connected master and slave (bytes)
system.tol2bus.pkt_count_system.cpu1.dtb_walker_cache.mem_side::system.l2.cpu_side        27462                       # Packet count per connected master and slave (bytes)
system.tol2bus.pkt_count_system.cpu2.icache.mem_side::system.l2.cpu_side      5442707                       # Packet count per connected master and slave (bytes)
system.tol2bus.pkt_count_system.cpu2.dcache.mem_side::system.l2.cpu_side     23537983                       # Packet count per connected master and slave (bytes)
system.tol2bus.pkt_count_system.cpu2.itb_walker_cache.mem_side::system.l2.cpu_side         3038                       # Packet count per connected master and slave (bytes)
system.tol2bus.pkt_count_system.cpu2.dtb_walker_cache.mem_side::system.l2.cpu_side       167942                       # Packet count per connected master and slave (bytes)
system.tol2bus.pkt_count_system.cpu3.icache.mem_side::system.l2.cpu_side     26138733                       # Packet count per connected master and slave (bytes)
system.tol2bus.pkt_count_system.cpu3.dcache.mem_side::system.l2.cpu_side      1471481                       # Packet count per connected master and slave (bytes)
system.tol2bus.pkt_count_system.cpu3.itb_walker_cache.mem_side::system.l2.cpu_side         5381                       # Packet count per connected master and slave (bytes)
system.tol2bus.pkt_count_system.cpu3.dtb_walker_cache.mem_side::system.l2.cpu_side        16768                       # Packet count per connected master and slave (bytes)
system.tol2bus.pkt_count::total             103777994                       # Packet count per connected master and slave (bytes)
system.tol2bus.pkt_size_system.cpu0.icache.mem_side::system.l2.cpu_side     48805760                       # Cumulative packet size per connected master and slave (bytes)
system.tol2bus.pkt_size_system.cpu0.dcache.mem_side::system.l2.cpu_side   1553182582                       # Cumulative packet size per connected master and slave (bytes)
system.tol2bus.pkt_size_system.cpu0.itb_walker_cache.mem_side::system.l2.cpu_side        47744                       # Cumulative packet size per connected master and slave (bytes)
system.tol2bus.pkt_size_system.cpu0.dtb_walker_cache.mem_side::system.l2.cpu_side    193885056                       # Cumulative packet size per connected master and slave (bytes)
system.tol2bus.pkt_size_system.cpu1.icache.mem_side::system.l2.cpu_side    163170112                       # Cumulative packet size per connected master and slave (bytes)
system.tol2bus.pkt_size_system.cpu1.dcache.mem_side::system.l2.cpu_side     41523473                       # Cumulative packet size per connected master and slave (bytes)
system.tol2bus.pkt_size_system.cpu1.itb_walker_cache.mem_side::system.l2.cpu_side       303936                       # Cumulative packet size per connected master and slave (bytes)
system.tol2bus.pkt_size_system.cpu1.dtb_walker_cache.mem_side::system.l2.cpu_side      1011328                       # Cumulative packet size per connected master and slave (bytes)
system.tol2bus.pkt_size_system.cpu2.icache.mem_side::system.l2.cpu_side    232221504                       # Cumulative packet size per connected master and slave (bytes)
system.tol2bus.pkt_size_system.cpu2.dcache.mem_side::system.l2.cpu_side    993825268                       # Cumulative packet size per connected master and slave (bytes)
system.tol2bus.pkt_size_system.cpu2.itb_walker_cache.mem_side::system.l2.cpu_side        88320                       # Cumulative packet size per connected master and slave (bytes)
system.tol2bus.pkt_size_system.cpu2.dtb_walker_cache.mem_side::system.l2.cpu_side      2015808                       # Cumulative packet size per connected master and slave (bytes)
system.tol2bus.pkt_size_system.cpu3.icache.mem_side::system.l2.cpu_side   1115252096                       # Cumulative packet size per connected master and slave (bytes)
system.tol2bus.pkt_size_system.cpu3.dcache.mem_side::system.l2.cpu_side     61909420                       # Cumulative packet size per connected master and slave (bytes)
system.tol2bus.pkt_size_system.cpu3.itb_walker_cache.mem_side::system.l2.cpu_side       159296                       # Cumulative packet size per connected master and slave (bytes)
system.tol2bus.pkt_size_system.cpu3.dtb_walker_cache.mem_side::system.l2.cpu_side       599424                       # Cumulative packet size per connected master and slave (bytes)
system.tol2bus.pkt_size::total             4408001127                       # Cumulative packet size per connected master and slave (bytes)
system.tol2bus.snoops                        22460321                       # Total snoops (count)
system.tol2bus.snoopTraffic                 555345472                       # Total snoop traffic (bytes)
system.tol2bus.snoop_fanout::samples         57028352                       # Request fanout histogram
system.tol2bus.snoop_fanout::mean            0.037554                       # Request fanout histogram
system.tol2bus.snoop_fanout::stdev           0.227468                       # Request fanout histogram
system.tol2bus.snoop_fanout::underflows             0      0.00%      0.00% # Request fanout histogram
system.tol2bus.snoop_fanout::0               55239230     96.86%     96.86% # Request fanout histogram
system.tol2bus.snoop_fanout::1                1511398      2.65%     99.51% # Request fanout histogram
system.tol2bus.snoop_fanout::2                 214157      0.38%     99.89% # Request fanout histogram
system.tol2bus.snoop_fanout::3                  56911      0.10%     99.99% # Request fanout histogram
system.tol2bus.snoop_fanout::4                   3544      0.01%     99.99% # Request fanout histogram
system.tol2bus.snoop_fanout::5                   1943      0.00%    100.00% # Request fanout histogram
system.tol2bus.snoop_fanout::6                    893      0.00%    100.00% # Request fanout histogram
system.tol2bus.snoop_fanout::7                    276      0.00%    100.00% # Request fanout histogram
system.tol2bus.snoop_fanout::8                      0      0.00%    100.00% # Request fanout histogram
system.tol2bus.snoop_fanout::9                      0      0.00%    100.00% # Request fanout histogram
system.tol2bus.snoop_fanout::10                     0      0.00%    100.00% # Request fanout histogram
system.tol2bus.snoop_fanout::11                     0      0.00%    100.00% # Request fanout histogram
system.tol2bus.snoop_fanout::12                     0      0.00%    100.00% # Request fanout histogram
system.tol2bus.snoop_fanout::13                     0      0.00%    100.00% # Request fanout histogram
system.tol2bus.snoop_fanout::14                     0      0.00%    100.00% # Request fanout histogram
system.tol2bus.snoop_fanout::15                     0      0.00%    100.00% # Request fanout histogram
system.tol2bus.snoop_fanout::16                     0      0.00%    100.00% # Request fanout histogram
system.tol2bus.snoop_fanout::overflows              0      0.00%    100.00% # Request fanout histogram
system.tol2bus.snoop_fanout::min_value              0                       # Request fanout histogram
system.tol2bus.snoop_fanout::max_value              7                       # Request fanout histogram
system.tol2bus.snoop_fanout::total           57028352                       # Request fanout histogram
system.tol2bus.reqLayer0.occupancy        69051291445                       # Layer occupancy (ticks)
system.tol2bus.reqLayer0.utilization             13.7                       # Layer utilization (%)
system.tol2bus.snoopLayer0.occupancy          1561300                       # Layer occupancy (ticks)
system.tol2bus.snoopLayer0.utilization            0.0                       # Layer utilization (%)
system.tol2bus.respLayer0.occupancy         574230021                       # Layer occupancy (ticks)
system.tol2bus.respLayer0.utilization             0.1                       # Layer utilization (%)
system.tol2bus.respLayer1.occupancy       18288779212                       # Layer occupancy (ticks)
system.tol2bus.respLayer1.utilization             3.6                       # Layer utilization (%)
system.tol2bus.respLayer2.occupancy           1561993                       # Layer occupancy (ticks)
system.tol2bus.respLayer2.utilization             0.0                       # Layer utilization (%)
system.tol2bus.respLayer3.occupancy        2277450869                       # Layer occupancy (ticks)
system.tol2bus.respLayer3.utilization             0.5                       # Layer utilization (%)
system.tol2bus.respLayer4.occupancy        1916880541                       # Layer occupancy (ticks)
system.tol2bus.respLayer4.utilization             0.4                       # Layer utilization (%)
system.tol2bus.respLayer5.occupancy         508107991                       # Layer occupancy (ticks)
system.tol2bus.respLayer5.utilization             0.1                       # Layer utilization (%)
system.tol2bus.respLayer6.occupancy           6667428                       # Layer occupancy (ticks)
system.tol2bus.respLayer6.utilization             0.0                       # Layer utilization (%)
system.tol2bus.respLayer7.occupancy          17561357                       # Layer occupancy (ticks)
system.tol2bus.respLayer7.utilization             0.0                       # Layer utilization (%)
system.tol2bus.respLayer8.occupancy        2727561046                       # Layer occupancy (ticks)
system.tol2bus.respLayer8.utilization             0.5                       # Layer utilization (%)
system.tol2bus.respLayer9.occupancy       11749491492                       # Layer occupancy (ticks)
system.tol2bus.respLayer9.utilization             2.3                       # Layer utilization (%)
system.tol2bus.respLayer10.occupancy          2494485                       # Layer occupancy (ticks)
system.tol2bus.respLayer10.utilization            0.0                       # Layer utilization (%)
system.tol2bus.respLayer11.occupancy        204822688                       # Layer occupancy (ticks)
system.tol2bus.respLayer11.utilization            0.0                       # Layer utilization (%)
system.tol2bus.respLayer12.occupancy      13083945705                       # Layer occupancy (ticks)
system.tol2bus.respLayer12.utilization            2.6                       # Layer utilization (%)
system.tol2bus.respLayer13.occupancy        743504151                       # Layer occupancy (ticks)
system.tol2bus.respLayer13.utilization            0.1                       # Layer utilization (%)
system.tol2bus.respLayer14.occupancy          4353469                       # Layer occupancy (ticks)
system.tol2bus.respLayer14.utilization            0.0                       # Layer utilization (%)
system.tol2bus.respLayer15.occupancy         11143918                       # Layer occupancy (ticks)
system.tol2bus.respLayer15.utilization            0.0                       # Layer utilization (%)
system.switch_cpus0.kern.inst.arm                   0                       # number of arm instructions executed
system.switch_cpus0.kern.inst.quiesce               0                       # number of quiesce instructions executed
system.switch_cpus1.kern.inst.arm                   0                       # number of arm instructions executed
system.switch_cpus1.kern.inst.quiesce               0                       # number of quiesce instructions executed
system.switch_cpus2.kern.inst.arm                   0                       # number of arm instructions executed
system.switch_cpus2.kern.inst.quiesce               0                       # number of quiesce instructions executed
system.switch_cpus3.kern.inst.arm                   0                       # number of arm instructions executed
system.switch_cpus3.kern.inst.quiesce               0                       # number of quiesce instructions executed

---------- End Simulation Statistics   ----------
