
---------- Begin Simulation Statistics ----------
sim_seconds                                  0.504421                       # Number of seconds simulated
sim_ticks                                504421432500                       # Number of ticks simulated
final_tick                               3740970732500                       # Number of ticks from beginning of simulation (restored from checkpoints and never reset)
sim_freq                                 1000000000000                       # Frequency of simulated ticks
host_inst_rate                                 108171                       # Simulator instruction rate (inst/s)
host_op_rate                                   128811                       # Simulator op (including micro ops) rate (op/s)
host_tick_rate                               17688640                       # Simulator tick rate (ticks/s)
host_mem_usage                                2670804                       # Number of bytes of host memory used
host_seconds                                 28516.69                       # Real time elapsed on the host
sim_insts                                  3084683754                       # Number of instructions simulated
sim_ops                                    3673257785                       # Number of ops (including micro ops) simulated
system.voltage_domain.voltage                       1                       # Voltage in Volts
system.clk_domain.clock                          1000                       # Clock period in ticks
system.mem_ctrls.pwrStateResidencyTicks::UNDEFINED 3740970732500                       # Cumulative time (in ticks) in various power states
system.mem_ctrls.bytes_read::l2.prefetcher    464660736                       # Number of bytes read from this memory
system.mem_ctrls.bytes_read::switch_cpus0.dtb.walker      5132992                       # Number of bytes read from this memory
system.mem_ctrls.bytes_read::switch_cpus0.itb.walker        26112                       # Number of bytes read from this memory
system.mem_ctrls.bytes_read::switch_cpus0.inst     10670464                       # Number of bytes read from this memory
system.mem_ctrls.bytes_read::switch_cpus0.data    250626112                       # Number of bytes read from this memory
system.mem_ctrls.bytes_read::switch_cpus1.dtb.walker       314048                       # Number of bytes read from this memory
system.mem_ctrls.bytes_read::switch_cpus1.itb.walker       104512                       # Number of bytes read from this memory
system.mem_ctrls.bytes_read::switch_cpus1.inst     16927488                       # Number of bytes read from this memory
system.mem_ctrls.bytes_read::switch_cpus1.data      6837248                       # Number of bytes read from this memory
system.mem_ctrls.bytes_read::switch_cpus2.dtb.walker       447040                       # Number of bytes read from this memory
system.mem_ctrls.bytes_read::switch_cpus2.itb.walker        18752                       # Number of bytes read from this memory
system.mem_ctrls.bytes_read::switch_cpus2.inst     30938560                       # Number of bytes read from this memory
system.mem_ctrls.bytes_read::switch_cpus2.data     49370048                       # Number of bytes read from this memory
system.mem_ctrls.bytes_read::switch_cpus3.dtb.walker       155712                       # Number of bytes read from this memory
system.mem_ctrls.bytes_read::switch_cpus3.itb.walker        43200                       # Number of bytes read from this memory
system.mem_ctrls.bytes_read::switch_cpus3.inst     46161536                       # Number of bytes read from this memory
system.mem_ctrls.bytes_read::switch_cpus3.data      4015936                       # Number of bytes read from this memory
system.mem_ctrls.bytes_read::total          886450496                       # Number of bytes read from this memory
system.mem_ctrls.bytes_inst_read::switch_cpus0.inst     10670464                       # Number of instructions bytes read from this memory
system.mem_ctrls.bytes_inst_read::switch_cpus1.inst     16927488                       # Number of instructions bytes read from this memory
system.mem_ctrls.bytes_inst_read::switch_cpus2.inst     30938560                       # Number of instructions bytes read from this memory
system.mem_ctrls.bytes_inst_read::switch_cpus3.inst     46161536                       # Number of instructions bytes read from this memory
system.mem_ctrls.bytes_inst_read::total     104698048                       # Number of instructions bytes read from this memory
system.mem_ctrls.bytes_written::writebacks    554265216                       # Number of bytes written to this memory
system.mem_ctrls.bytes_written::total       554265216                       # Number of bytes written to this memory
system.mem_ctrls.num_reads::l2.prefetcher      7260324                       # Number of read requests responded to by this memory
system.mem_ctrls.num_reads::switch_cpus0.dtb.walker        80203                       # Number of read requests responded to by this memory
system.mem_ctrls.num_reads::switch_cpus0.itb.walker          408                       # Number of read requests responded to by this memory
system.mem_ctrls.num_reads::switch_cpus0.inst       166726                       # Number of read requests responded to by this memory
system.mem_ctrls.num_reads::switch_cpus0.data      3916033                       # Number of read requests responded to by this memory
system.mem_ctrls.num_reads::switch_cpus1.dtb.walker         4907                       # Number of read requests responded to by this memory
system.mem_ctrls.num_reads::switch_cpus1.itb.walker         1633                       # Number of read requests responded to by this memory
system.mem_ctrls.num_reads::switch_cpus1.inst       264492                       # Number of read requests responded to by this memory
system.mem_ctrls.num_reads::switch_cpus1.data       106832                       # Number of read requests responded to by this memory
system.mem_ctrls.num_reads::switch_cpus2.dtb.walker         6985                       # Number of read requests responded to by this memory
system.mem_ctrls.num_reads::switch_cpus2.itb.walker          293                       # Number of read requests responded to by this memory
system.mem_ctrls.num_reads::switch_cpus2.inst       483415                       # Number of read requests responded to by this memory
system.mem_ctrls.num_reads::switch_cpus2.data       771407                       # Number of read requests responded to by this memory
system.mem_ctrls.num_reads::switch_cpus3.dtb.walker         2433                       # Number of read requests responded to by this memory
system.mem_ctrls.num_reads::switch_cpus3.itb.walker          675                       # Number of read requests responded to by this memory
system.mem_ctrls.num_reads::switch_cpus3.inst       721274                       # Number of read requests responded to by this memory
system.mem_ctrls.num_reads::switch_cpus3.data        62749                       # Number of read requests responded to by this memory
system.mem_ctrls.num_reads::total            13850789                       # Number of read requests responded to by this memory
system.mem_ctrls.num_writes::writebacks       8660394                       # Number of write requests responded to by this memory
system.mem_ctrls.num_writes::total            8660394                       # Number of write requests responded to by this memory
system.mem_ctrls.bw_read::l2.prefetcher     921175640                       # Total read bandwidth from this memory (bytes/s)
system.mem_ctrls.bw_read::switch_cpus0.dtb.walker     10175999                       # Total read bandwidth from this memory (bytes/s)
system.mem_ctrls.bw_read::switch_cpus0.itb.walker        51766                       # Total read bandwidth from this memory (bytes/s)
system.mem_ctrls.bw_read::switch_cpus0.inst     21153867                       # Total read bandwidth from this memory (bytes/s)
system.mem_ctrls.bw_read::switch_cpus0.data    496858571                       # Total read bandwidth from this memory (bytes/s)
system.mem_ctrls.bw_read::switch_cpus1.dtb.walker       622591                       # Total read bandwidth from this memory (bytes/s)
system.mem_ctrls.bw_read::switch_cpus1.itb.walker       207192                       # Total read bandwidth from this memory (bytes/s)
system.mem_ctrls.bw_read::switch_cpus1.inst     33558225                       # Total read bandwidth from this memory (bytes/s)
system.mem_ctrls.bw_read::switch_cpus1.data     13554634                       # Total read bandwidth from this memory (bytes/s)
system.mem_ctrls.bw_read::switch_cpus2.dtb.walker       886243                       # Total read bandwidth from this memory (bytes/s)
system.mem_ctrls.bw_read::switch_cpus2.itb.walker        37175                       # Total read bandwidth from this memory (bytes/s)
system.mem_ctrls.bw_read::switch_cpus2.inst     61334745                       # Total read bandwidth from this memory (bytes/s)
system.mem_ctrls.bw_read::switch_cpus2.data     97874604                       # Total read bandwidth from this memory (bytes/s)
system.mem_ctrls.bw_read::switch_cpus3.dtb.walker       308694                       # Total read bandwidth from this memory (bytes/s)
system.mem_ctrls.bw_read::switch_cpus3.itb.walker        85643                       # Total read bandwidth from this memory (bytes/s)
system.mem_ctrls.bw_read::switch_cpus3.inst     91513828                       # Total read bandwidth from this memory (bytes/s)
system.mem_ctrls.bw_read::switch_cpus3.data      7961470                       # Total read bandwidth from this memory (bytes/s)
system.mem_ctrls.bw_read::total            1757360887                       # Total read bandwidth from this memory (bytes/s)
system.mem_ctrls.bw_inst_read::switch_cpus0.inst     21153867                       # Instruction read bandwidth from this memory (bytes/s)
system.mem_ctrls.bw_inst_read::switch_cpus1.inst     33558225                       # Instruction read bandwidth from this memory (bytes/s)
system.mem_ctrls.bw_inst_read::switch_cpus2.inst     61334745                       # Instruction read bandwidth from this memory (bytes/s)
system.mem_ctrls.bw_inst_read::switch_cpus3.inst     91513828                       # Instruction read bandwidth from this memory (bytes/s)
system.mem_ctrls.bw_inst_read::total        207560665                       # Instruction read bandwidth from this memory (bytes/s)
system.mem_ctrls.bw_write::writebacks      1098813770                       # Write bandwidth from this memory (bytes/s)
system.mem_ctrls.bw_write::total           1098813770                       # Write bandwidth from this memory (bytes/s)
system.mem_ctrls.bw_total::writebacks      1098813770                       # Total bandwidth to/from this memory (bytes/s)
system.mem_ctrls.bw_total::l2.prefetcher    921175640                       # Total bandwidth to/from this memory (bytes/s)
system.mem_ctrls.bw_total::switch_cpus0.dtb.walker     10175999                       # Total bandwidth to/from this memory (bytes/s)
system.mem_ctrls.bw_total::switch_cpus0.itb.walker        51766                       # Total bandwidth to/from this memory (bytes/s)
system.mem_ctrls.bw_total::switch_cpus0.inst     21153867                       # Total bandwidth to/from this memory (bytes/s)
system.mem_ctrls.bw_total::switch_cpus0.data    496858571                       # Total bandwidth to/from this memory (bytes/s)
system.mem_ctrls.bw_total::switch_cpus1.dtb.walker       622591                       # Total bandwidth to/from this memory (bytes/s)
system.mem_ctrls.bw_total::switch_cpus1.itb.walker       207192                       # Total bandwidth to/from this memory (bytes/s)
system.mem_ctrls.bw_total::switch_cpus1.inst     33558225                       # Total bandwidth to/from this memory (bytes/s)
system.mem_ctrls.bw_total::switch_cpus1.data     13554634                       # Total bandwidth to/from this memory (bytes/s)
system.mem_ctrls.bw_total::switch_cpus2.dtb.walker       886243                       # Total bandwidth to/from this memory (bytes/s)
system.mem_ctrls.bw_total::switch_cpus2.itb.walker        37175                       # Total bandwidth to/from this memory (bytes/s)
system.mem_ctrls.bw_total::switch_cpus2.inst     61334745                       # Total bandwidth to/from this memory (bytes/s)
system.mem_ctrls.bw_total::switch_cpus2.data     97874604                       # Total bandwidth to/from this memory (bytes/s)
system.mem_ctrls.bw_total::switch_cpus3.dtb.walker       308694                       # Total bandwidth to/from this memory (bytes/s)
system.mem_ctrls.bw_total::switch_cpus3.itb.walker        85643                       # Total bandwidth to/from this memory (bytes/s)
system.mem_ctrls.bw_total::switch_cpus3.inst     91513828                       # Total bandwidth to/from this memory (bytes/s)
system.mem_ctrls.bw_total::switch_cpus3.data      7961470                       # Total bandwidth to/from this memory (bytes/s)
system.mem_ctrls.bw_total::total           2856174657                       # Total bandwidth to/from this memory (bytes/s)
system.mem_ctrls.readReqs                    13850790                       # Number of read requests accepted
system.mem_ctrls.writeReqs                    8660394                       # Number of write requests accepted
system.mem_ctrls.readBursts                  13850790                       # Number of DRAM read bursts, including those serviced by the write queue
system.mem_ctrls.writeBursts                  8660394                       # Number of DRAM write bursts, including those merged in the write queue
system.mem_ctrls.bytesReadDRAM              886020864                       # Total number of bytes read from DRAM
system.mem_ctrls.bytesReadWrQ                  429696                       # Total number of bytes read from write queue
system.mem_ctrls.bytesWritten               554263296                       # Total number of bytes written to DRAM
system.mem_ctrls.bytesReadSys               886450560                       # Total read bytes from the system interface side
system.mem_ctrls.bytesWrittenSys            554265216                       # Total written bytes from the system interface side
system.mem_ctrls.servicedByWrQ                   6714                       # Number of DRAM read bursts serviced by the write queue
system.mem_ctrls.mergedWrBursts                     2                       # Number of DRAM write bursts merged with an existing one
system.mem_ctrls.neitherReadNorWriteReqs            0                       # Number of requests that are neither read nor write
system.mem_ctrls.perBankRdBursts::0            770697                       # Per bank write bursts
system.mem_ctrls.perBankRdBursts::1            889160                       # Per bank write bursts
system.mem_ctrls.perBankRdBursts::2            868034                       # Per bank write bursts
system.mem_ctrls.perBankRdBursts::3            810769                       # Per bank write bursts
system.mem_ctrls.perBankRdBursts::4            940933                       # Per bank write bursts
system.mem_ctrls.perBankRdBursts::5            788231                       # Per bank write bursts
system.mem_ctrls.perBankRdBursts::6            893653                       # Per bank write bursts
system.mem_ctrls.perBankRdBursts::7            873811                       # Per bank write bursts
system.mem_ctrls.perBankRdBursts::8            853144                       # Per bank write bursts
system.mem_ctrls.perBankRdBursts::9            823905                       # Per bank write bursts
system.mem_ctrls.perBankRdBursts::10           780212                       # Per bank write bursts
system.mem_ctrls.perBankRdBursts::11           960786                       # Per bank write bursts
system.mem_ctrls.perBankRdBursts::12           789927                       # Per bank write bursts
system.mem_ctrls.perBankRdBursts::13           900324                       # Per bank write bursts
system.mem_ctrls.perBankRdBursts::14           940597                       # Per bank write bursts
system.mem_ctrls.perBankRdBursts::15           959893                       # Per bank write bursts
system.mem_ctrls.perBankWrBursts::0            540605                       # Per bank write bursts
system.mem_ctrls.perBankWrBursts::1            537902                       # Per bank write bursts
system.mem_ctrls.perBankWrBursts::2            545619                       # Per bank write bursts
system.mem_ctrls.perBankWrBursts::3            547758                       # Per bank write bursts
system.mem_ctrls.perBankWrBursts::4            557654                       # Per bank write bursts
system.mem_ctrls.perBankWrBursts::5            523404                       # Per bank write bursts
system.mem_ctrls.perBankWrBursts::6            551506                       # Per bank write bursts
system.mem_ctrls.perBankWrBursts::7            550445                       # Per bank write bursts
system.mem_ctrls.perBankWrBursts::8            523434                       # Per bank write bursts
system.mem_ctrls.perBankWrBursts::9            545584                       # Per bank write bursts
system.mem_ctrls.perBankWrBursts::10           532265                       # Per bank write bursts
system.mem_ctrls.perBankWrBursts::11           533309                       # Per bank write bursts
system.mem_ctrls.perBankWrBursts::12           560394                       # Per bank write bursts
system.mem_ctrls.perBankWrBursts::13           512878                       # Per bank write bursts
system.mem_ctrls.perBankWrBursts::14           569638                       # Per bank write bursts
system.mem_ctrls.perBankWrBursts::15           527969                       # Per bank write bursts
system.mem_ctrls.numRdRetry                         0                       # Number of times read queue was full causing retry
system.mem_ctrls.numWrRetry                      1294                       # Number of times write queue was full causing retry
system.mem_ctrls.totGap                  504421448000                       # Total gap between requests
system.mem_ctrls.readPktSize::0                     0                       # Read request sizes (log2)
system.mem_ctrls.readPktSize::1                     0                       # Read request sizes (log2)
system.mem_ctrls.readPktSize::2                     0                       # Read request sizes (log2)
system.mem_ctrls.readPktSize::3                     0                       # Read request sizes (log2)
system.mem_ctrls.readPktSize::4                     0                       # Read request sizes (log2)
system.mem_ctrls.readPktSize::5                     0                       # Read request sizes (log2)
system.mem_ctrls.readPktSize::6              13850790                       # Read request sizes (log2)
system.mem_ctrls.writePktSize::0                    0                       # Write request sizes (log2)
system.mem_ctrls.writePktSize::1                    0                       # Write request sizes (log2)
system.mem_ctrls.writePktSize::2                    0                       # Write request sizes (log2)
system.mem_ctrls.writePktSize::3                    0                       # Write request sizes (log2)
system.mem_ctrls.writePktSize::4                    0                       # Write request sizes (log2)
system.mem_ctrls.writePktSize::5                    0                       # Write request sizes (log2)
system.mem_ctrls.writePktSize::6              8660394                       # Write request sizes (log2)
system.mem_ctrls.rdQLenPdf::0                 2845272                       # What read queue length does an incoming req see
system.mem_ctrls.rdQLenPdf::1                 3422033                       # What read queue length does an incoming req see
system.mem_ctrls.rdQLenPdf::2                 1788372                       # What read queue length does an incoming req see
system.mem_ctrls.rdQLenPdf::3                 1290360                       # What read queue length does an incoming req see
system.mem_ctrls.rdQLenPdf::4                 1039240                       # What read queue length does an incoming req see
system.mem_ctrls.rdQLenPdf::5                  823630                       # What read queue length does an incoming req see
system.mem_ctrls.rdQLenPdf::6                  671182                       # What read queue length does an incoming req see
system.mem_ctrls.rdQLenPdf::7                  606951                       # What read queue length does an incoming req see
system.mem_ctrls.rdQLenPdf::8                  528145                       # What read queue length does an incoming req see
system.mem_ctrls.rdQLenPdf::9                  403471                       # What read queue length does an incoming req see
system.mem_ctrls.rdQLenPdf::10                 244121                       # What read queue length does an incoming req see
system.mem_ctrls.rdQLenPdf::11                 111223                       # What read queue length does an incoming req see
system.mem_ctrls.rdQLenPdf::12                  43713                       # What read queue length does an incoming req see
system.mem_ctrls.rdQLenPdf::13                  21382                       # What read queue length does an incoming req see
system.mem_ctrls.rdQLenPdf::14                   4073                       # What read queue length does an incoming req see
system.mem_ctrls.rdQLenPdf::15                    908                       # What read queue length does an incoming req see
system.mem_ctrls.rdQLenPdf::16                      0                       # What read queue length does an incoming req see
system.mem_ctrls.rdQLenPdf::17                      0                       # What read queue length does an incoming req see
system.mem_ctrls.rdQLenPdf::18                      0                       # What read queue length does an incoming req see
system.mem_ctrls.rdQLenPdf::19                      0                       # What read queue length does an incoming req see
system.mem_ctrls.rdQLenPdf::20                      0                       # What read queue length does an incoming req see
system.mem_ctrls.rdQLenPdf::21                      0                       # What read queue length does an incoming req see
system.mem_ctrls.rdQLenPdf::22                      0                       # What read queue length does an incoming req see
system.mem_ctrls.rdQLenPdf::23                      0                       # What read queue length does an incoming req see
system.mem_ctrls.rdQLenPdf::24                      0                       # What read queue length does an incoming req see
system.mem_ctrls.rdQLenPdf::25                      0                       # What read queue length does an incoming req see
system.mem_ctrls.rdQLenPdf::26                      0                       # What read queue length does an incoming req see
system.mem_ctrls.rdQLenPdf::27                      0                       # What read queue length does an incoming req see
system.mem_ctrls.rdQLenPdf::28                      0                       # What read queue length does an incoming req see
system.mem_ctrls.rdQLenPdf::29                      0                       # What read queue length does an incoming req see
system.mem_ctrls.rdQLenPdf::30                      0                       # What read queue length does an incoming req see
system.mem_ctrls.rdQLenPdf::31                      0                       # What read queue length does an incoming req see
system.mem_ctrls.wrQLenPdf::0                       0                       # What write queue length does an incoming req see
system.mem_ctrls.wrQLenPdf::1                       1                       # What write queue length does an incoming req see
system.mem_ctrls.wrQLenPdf::2                       1                       # What write queue length does an incoming req see
system.mem_ctrls.wrQLenPdf::3                       1                       # What write queue length does an incoming req see
system.mem_ctrls.wrQLenPdf::4                       1                       # What write queue length does an incoming req see
system.mem_ctrls.wrQLenPdf::5                       1                       # What write queue length does an incoming req see
system.mem_ctrls.wrQLenPdf::6                       1                       # What write queue length does an incoming req see
system.mem_ctrls.wrQLenPdf::7                       1                       # What write queue length does an incoming req see
system.mem_ctrls.wrQLenPdf::8                       1                       # What write queue length does an incoming req see
system.mem_ctrls.wrQLenPdf::9                       1                       # What write queue length does an incoming req see
system.mem_ctrls.wrQLenPdf::10                      1                       # What write queue length does an incoming req see
system.mem_ctrls.wrQLenPdf::11                      1                       # What write queue length does an incoming req see
system.mem_ctrls.wrQLenPdf::12                      1                       # What write queue length does an incoming req see
system.mem_ctrls.wrQLenPdf::13                      1                       # What write queue length does an incoming req see
system.mem_ctrls.wrQLenPdf::14                      1                       # What write queue length does an incoming req see
system.mem_ctrls.wrQLenPdf::15                  11078                       # What write queue length does an incoming req see
system.mem_ctrls.wrQLenPdf::16                  13983                       # What write queue length does an incoming req see
system.mem_ctrls.wrQLenPdf::17                  75716                       # What write queue length does an incoming req see
system.mem_ctrls.wrQLenPdf::18                 134201                       # What write queue length does an incoming req see
system.mem_ctrls.wrQLenPdf::19                 184867                       # What write queue length does an incoming req see
system.mem_ctrls.wrQLenPdf::20                 243396                       # What write queue length does an incoming req see
system.mem_ctrls.wrQLenPdf::21                 323024                       # What write queue length does an incoming req see
system.mem_ctrls.wrQLenPdf::22                 391174                       # What write queue length does an incoming req see
system.mem_ctrls.wrQLenPdf::23                 451482                       # What write queue length does an incoming req see
system.mem_ctrls.wrQLenPdf::24                 506028                       # What write queue length does an incoming req see
system.mem_ctrls.wrQLenPdf::25                 556937                       # What write queue length does an incoming req see
system.mem_ctrls.wrQLenPdf::26                 608879                       # What write queue length does an incoming req see
system.mem_ctrls.wrQLenPdf::27                 659423                       # What write queue length does an incoming req see
system.mem_ctrls.wrQLenPdf::28                 718489                       # What write queue length does an incoming req see
system.mem_ctrls.wrQLenPdf::29                 799349                       # What write queue length does an incoming req see
system.mem_ctrls.wrQLenPdf::30                 824736                       # What write queue length does an incoming req see
system.mem_ctrls.wrQLenPdf::31                 811810                       # What write queue length does an incoming req see
system.mem_ctrls.wrQLenPdf::32                 724255                       # What write queue length does an incoming req see
system.mem_ctrls.wrQLenPdf::33                 153808                       # What write queue length does an incoming req see
system.mem_ctrls.wrQLenPdf::34                  97658                       # What write queue length does an incoming req see
system.mem_ctrls.wrQLenPdf::35                  66263                       # What write queue length does an incoming req see
system.mem_ctrls.wrQLenPdf::36                  47665                       # What write queue length does an incoming req see
system.mem_ctrls.wrQLenPdf::37                  34845                       # What write queue length does an incoming req see
system.mem_ctrls.wrQLenPdf::38                  26401                       # What write queue length does an incoming req see
system.mem_ctrls.wrQLenPdf::39                  21197                       # What write queue length does an incoming req see
system.mem_ctrls.wrQLenPdf::40                  16668                       # What write queue length does an incoming req see
system.mem_ctrls.wrQLenPdf::41                  14157                       # What write queue length does an incoming req see
system.mem_ctrls.wrQLenPdf::42                  12133                       # What write queue length does an incoming req see
system.mem_ctrls.wrQLenPdf::43                  10859                       # What write queue length does an incoming req see
system.mem_ctrls.wrQLenPdf::44                   9755                       # What write queue length does an incoming req see
system.mem_ctrls.wrQLenPdf::45                   8981                       # What write queue length does an incoming req see
system.mem_ctrls.wrQLenPdf::46                   8390                       # What write queue length does an incoming req see
system.mem_ctrls.wrQLenPdf::47                   7952                       # What write queue length does an incoming req see
system.mem_ctrls.wrQLenPdf::48                   7450                       # What write queue length does an incoming req see
system.mem_ctrls.wrQLenPdf::49                   7258                       # What write queue length does an incoming req see
system.mem_ctrls.wrQLenPdf::50                   7115                       # What write queue length does an incoming req see
system.mem_ctrls.wrQLenPdf::51                   7056                       # What write queue length does an incoming req see
system.mem_ctrls.wrQLenPdf::52                   7195                       # What write queue length does an incoming req see
system.mem_ctrls.wrQLenPdf::53                   6813                       # What write queue length does an incoming req see
system.mem_ctrls.wrQLenPdf::54                   7093                       # What write queue length does an incoming req see
system.mem_ctrls.wrQLenPdf::55                   7016                       # What write queue length does an incoming req see
system.mem_ctrls.wrQLenPdf::56                   5300                       # What write queue length does an incoming req see
system.mem_ctrls.wrQLenPdf::57                   4381                       # What write queue length does an incoming req see
system.mem_ctrls.wrQLenPdf::58                   3773                       # What write queue length does an incoming req see
system.mem_ctrls.wrQLenPdf::59                   3308                       # What write queue length does an incoming req see
system.mem_ctrls.wrQLenPdf::60                   2721                       # What write queue length does an incoming req see
system.mem_ctrls.wrQLenPdf::61                   2211                       # What write queue length does an incoming req see
system.mem_ctrls.wrQLenPdf::62                   2175                       # What write queue length does an incoming req see
system.mem_ctrls.wrQLenPdf::63                   3954                       # What write queue length does an incoming req see
system.mem_ctrls.bytesPerActivate::samples     11331710                       # Bytes accessed per row activation
system.mem_ctrls.bytesPerActivate::mean    127.102006                       # Bytes accessed per row activation
system.mem_ctrls.bytesPerActivate::gmean    88.664132                       # Bytes accessed per row activation
system.mem_ctrls.bytesPerActivate::stdev   175.493939                       # Bytes accessed per row activation
system.mem_ctrls.bytesPerActivate::0-127      8557403     75.52%     75.52% # Bytes accessed per row activation
system.mem_ctrls.bytesPerActivate::128-255      1592169     14.05%     89.57% # Bytes accessed per row activation
system.mem_ctrls.bytesPerActivate::256-383       406742      3.59%     93.16% # Bytes accessed per row activation
system.mem_ctrls.bytesPerActivate::384-511       174728      1.54%     94.70% # Bytes accessed per row activation
system.mem_ctrls.bytesPerActivate::512-639       193643      1.71%     96.41% # Bytes accessed per row activation
system.mem_ctrls.bytesPerActivate::640-767        88481      0.78%     97.19% # Bytes accessed per row activation
system.mem_ctrls.bytesPerActivate::768-895        54212      0.48%     97.67% # Bytes accessed per row activation
system.mem_ctrls.bytesPerActivate::896-1023        61495      0.54%     98.21% # Bytes accessed per row activation
system.mem_ctrls.bytesPerActivate::1024-1151       202837      1.79%    100.00% # Bytes accessed per row activation
system.mem_ctrls.bytesPerActivate::total     11331710                       # Bytes accessed per row activation
system.mem_ctrls.rdPerTurnAround::samples       537454                       # Reads before turning the bus around for writes
system.mem_ctrls.rdPerTurnAround::mean      25.796794                       # Reads before turning the bus around for writes
system.mem_ctrls.rdPerTurnAround::stdev     42.052576                       # Reads before turning the bus around for writes
system.mem_ctrls.rdPerTurnAround::0-1023       537444    100.00%    100.00% # Reads before turning the bus around for writes
system.mem_ctrls.rdPerTurnAround::1024-2047            9      0.00%    100.00% # Reads before turning the bus around for writes
system.mem_ctrls.rdPerTurnAround::27648-28671            1      0.00%    100.00% # Reads before turning the bus around for writes
system.mem_ctrls.rdPerTurnAround::total        537454                       # Reads before turning the bus around for writes
system.mem_ctrls.wrPerTurnAround::samples       537454                       # Writes before turning the bus around for reads
system.mem_ctrls.wrPerTurnAround::mean      16.113684                       # Writes before turning the bus around for reads
system.mem_ctrls.wrPerTurnAround::gmean     16.097187                       # Writes before turning the bus around for reads
system.mem_ctrls.wrPerTurnAround::stdev      0.932662                       # Writes before turning the bus around for reads
system.mem_ctrls.wrPerTurnAround::16-17        521941     97.11%     97.11% # Writes before turning the bus around for reads
system.mem_ctrls.wrPerTurnAround::18-19         10533      1.96%     99.07% # Writes before turning the bus around for reads
system.mem_ctrls.wrPerTurnAround::20-21          3110      0.58%     99.65% # Writes before turning the bus around for reads
system.mem_ctrls.wrPerTurnAround::22-23           960      0.18%     99.83% # Writes before turning the bus around for reads
system.mem_ctrls.wrPerTurnAround::24-25           341      0.06%     99.89% # Writes before turning the bus around for reads
system.mem_ctrls.wrPerTurnAround::26-27           167      0.03%     99.93% # Writes before turning the bus around for reads
system.mem_ctrls.wrPerTurnAround::28-29            82      0.02%     99.94% # Writes before turning the bus around for reads
system.mem_ctrls.wrPerTurnAround::30-31            59      0.01%     99.95% # Writes before turning the bus around for reads
system.mem_ctrls.wrPerTurnAround::32-33            54      0.01%     99.96% # Writes before turning the bus around for reads
system.mem_ctrls.wrPerTurnAround::34-35            24      0.00%     99.97% # Writes before turning the bus around for reads
system.mem_ctrls.wrPerTurnAround::36-37            35      0.01%     99.97% # Writes before turning the bus around for reads
system.mem_ctrls.wrPerTurnAround::38-39            17      0.00%     99.98% # Writes before turning the bus around for reads
system.mem_ctrls.wrPerTurnAround::40-41            23      0.00%     99.98% # Writes before turning the bus around for reads
system.mem_ctrls.wrPerTurnAround::42-43            15      0.00%     99.98% # Writes before turning the bus around for reads
system.mem_ctrls.wrPerTurnAround::44-45            14      0.00%     99.99% # Writes before turning the bus around for reads
system.mem_ctrls.wrPerTurnAround::46-47             9      0.00%     99.99% # Writes before turning the bus around for reads
system.mem_ctrls.wrPerTurnAround::48-49             8      0.00%     99.99% # Writes before turning the bus around for reads
system.mem_ctrls.wrPerTurnAround::50-51             7      0.00%     99.99% # Writes before turning the bus around for reads
system.mem_ctrls.wrPerTurnAround::52-53            10      0.00%     99.99% # Writes before turning the bus around for reads
system.mem_ctrls.wrPerTurnAround::54-55             3      0.00%     99.99% # Writes before turning the bus around for reads
system.mem_ctrls.wrPerTurnAround::56-57             4      0.00%     99.99% # Writes before turning the bus around for reads
system.mem_ctrls.wrPerTurnAround::58-59             4      0.00%     99.99% # Writes before turning the bus around for reads
system.mem_ctrls.wrPerTurnAround::60-61             8      0.00%    100.00% # Writes before turning the bus around for reads
system.mem_ctrls.wrPerTurnAround::62-63             2      0.00%    100.00% # Writes before turning the bus around for reads
system.mem_ctrls.wrPerTurnAround::64-65             5      0.00%    100.00% # Writes before turning the bus around for reads
system.mem_ctrls.wrPerTurnAround::66-67             4      0.00%    100.00% # Writes before turning the bus around for reads
system.mem_ctrls.wrPerTurnAround::68-69             2      0.00%    100.00% # Writes before turning the bus around for reads
system.mem_ctrls.wrPerTurnAround::70-71             3      0.00%    100.00% # Writes before turning the bus around for reads
system.mem_ctrls.wrPerTurnAround::72-73             1      0.00%    100.00% # Writes before turning the bus around for reads
system.mem_ctrls.wrPerTurnAround::76-77             2      0.00%    100.00% # Writes before turning the bus around for reads
system.mem_ctrls.wrPerTurnAround::80-81             1      0.00%    100.00% # Writes before turning the bus around for reads
system.mem_ctrls.wrPerTurnAround::82-83             1      0.00%    100.00% # Writes before turning the bus around for reads
system.mem_ctrls.wrPerTurnAround::88-89             2      0.00%    100.00% # Writes before turning the bus around for reads
system.mem_ctrls.wrPerTurnAround::98-99             3      0.00%    100.00% # Writes before turning the bus around for reads
system.mem_ctrls.wrPerTurnAround::total        537454                       # Writes before turning the bus around for reads
system.mem_ctrls.totQLat                 1132263329909                       # Total ticks spent queuing
system.mem_ctrls.totMemAccLat            1391839754909                       # Total ticks spent from burst creation until serviced by the DRAM
system.mem_ctrls.totBusLat                69220380000                       # Total ticks spent in databus transfers
system.mem_ctrls.avgQLat                     81786.85                       # Average queueing delay per DRAM burst
system.mem_ctrls.avgBusLat                    5000.00                       # Average bus latency per DRAM burst
system.mem_ctrls.avgMemAccLat               100536.85                       # Average memory access latency per DRAM burst
system.mem_ctrls.avgRdBW                      1756.51                       # Average DRAM read bandwidth in MiByte/s
system.mem_ctrls.avgWrBW                      1098.81                       # Average achieved write bandwidth in MiByte/s
system.mem_ctrls.avgRdBWSys                   1757.36                       # Average system read bandwidth in MiByte/s
system.mem_ctrls.avgWrBWSys                   1098.81                       # Average system write bandwidth in MiByte/s
system.mem_ctrls.peakBW                      12800.00                       # Theoretical peak bandwidth in MiByte/s
system.mem_ctrls.busUtil                        22.31                       # Data bus utilization in percentage
system.mem_ctrls.busUtilRead                    13.72                       # Data bus utilization in percentage for reads
system.mem_ctrls.busUtilWrite                    8.58                       # Data bus utilization in percentage for writes
system.mem_ctrls.avgRdQLen                       3.78                       # Average read queue length when enqueuing
system.mem_ctrls.avgWrQLen                      27.44                       # Average write queue length when enqueuing
system.mem_ctrls.readRowHits                  8138191                       # Number of row buffer hits during reads
system.mem_ctrls.writeRowHits                 3034533                       # Number of row buffer hits during writes
system.mem_ctrls.readRowHitRate                 58.78                       # Row buffer hit rate for reads
system.mem_ctrls.writeRowHitRate                35.04                       # Row buffer hit rate for writes
system.mem_ctrls.avgGap                      22407.59                       # Average gap between requests
system.mem_ctrls.pageHitRate                    49.65                       # Row buffer hit rate, read and write combined
system.mem_ctrls_0.actEnergy              42652257480                       # Energy for activate commands per rank (pJ)
system.mem_ctrls_0.preEnergy              23272561125                       # Energy for precharge commands per rank (pJ)
system.mem_ctrls_0.readEnergy             53395578600                       # Energy for read commands per rank (pJ)
system.mem_ctrls_0.writeEnergy            28219641840                       # Energy for write commands per rank (pJ)
system.mem_ctrls_0.refreshEnergy          32991812880                       # Energy for refresh commands per rank (pJ)
system.mem_ctrls_0.actBackEnergy         339223544820                       # Energy for active background per rank (pJ)
system.mem_ctrls_0.preBackEnergy           5506080750                       # Energy for precharge background per rank (pJ)
system.mem_ctrls_0.totalEnergy           525261477495                       # Total energy per rank (pJ)
system.mem_ctrls_0.averagePower           1039.879464                       # Core power per rank (mW)
system.mem_ctrls_0.memoryStateTime::IDLE   6980222195                       # Time in different power states
system.mem_ctrls_0.memoryStateTime::REF   16843580000                       # Time in different power states
system.mem_ctrls_0.memoryStateTime::PRE_PDN            0                       # Time in different power states
system.mem_ctrls_0.memoryStateTime::ACT  480592836555                       # Time in different power states
system.mem_ctrls_0.memoryStateTime::ACT_PDN            0                       # Time in different power states
system.mem_ctrls_1.actEnergy              43069236840                       # Energy for activate commands per rank (pJ)
system.mem_ctrls_1.preEnergy              23500079625                       # Energy for precharge commands per rank (pJ)
system.mem_ctrls_1.readEnergy             54747802200                       # Energy for read commands per rank (pJ)
system.mem_ctrls_1.writeEnergy            27899413200                       # Energy for write commands per rank (pJ)
system.mem_ctrls_1.refreshEnergy          32991812880                       # Energy for refresh commands per rank (pJ)
system.mem_ctrls_1.actBackEnergy         340800858225                       # Energy for active background per rank (pJ)
system.mem_ctrls_1.preBackEnergy           4122472500                       # Energy for precharge background per rank (pJ)
system.mem_ctrls_1.totalEnergy           527131675470                       # Total energy per rank (pJ)
system.mem_ctrls_1.averagePower           1043.581963                       # Core power per rank (mW)
system.mem_ctrls_1.memoryStateTime::IDLE   4730869847                       # Time in different power states
system.mem_ctrls_1.memoryStateTime::REF   16843580000                       # Time in different power states
system.mem_ctrls_1.memoryStateTime::PRE_PDN            0                       # Time in different power states
system.mem_ctrls_1.memoryStateTime::ACT  482842183903                       # Time in different power states
system.mem_ctrls_1.memoryStateTime::ACT_PDN            0                       # Time in different power states
system.realview.nvmem.pwrStateResidencyTicks::UNDEFINED 3740970732500                       # Cumulative time (in ticks) in various power states
system.realview.vram.pwrStateResidencyTicks::UNDEFINED 3740970732500                       # Cumulative time (in ticks) in various power states
system.pwrStateResidencyTicks::UNDEFINED 3740970732500                       # Cumulative time (in ticks) in various power states
system.bridge.pwrStateResidencyTicks::UNDEFINED 3740970732500                       # Cumulative time (in ticks) in various power states
system.cf0.dma_read_full_pages                      0                       # Number of full page size DMA reads (not PRD).
system.cf0.dma_read_bytes                           0                       # Number of bytes transfered via DMA reads (not PRD).
system.cf0.dma_read_txs                             0                       # Number of DMA read transactions (not PRD).
system.cf0.dma_write_full_pages                  2334                       # Number of full page size DMA writes.
system.cf0.dma_write_bytes                    9636864                       # Number of bytes transfered via DMA writes.
system.cf0.dma_write_txs                         2403                       # Number of DMA write transactions.
system.cpu_voltage_domain.voltage                   1                       # Voltage in Volts
system.cpu_clk_domain.clock                       500                       # Clock period in ticks
system.cpu0.dstage2_mmu.stage2_tlb.walker.pwrStateResidencyTicks::UNDEFINED 3740970732500                       # Cumulative time (in ticks) in various power states
system.cpu0.dstage2_mmu.stage2_tlb.walker.walks            0                       # Table walker walks requested
system.cpu0.dstage2_mmu.stage2_tlb.walker.walkRequestOrigin_Requested::Data            0                       # Table walker requests started/completed, data/inst
system.cpu0.dstage2_mmu.stage2_tlb.walker.walkRequestOrigin_Requested::Inst            0                       # Table walker requests started/completed, data/inst
system.cpu0.dstage2_mmu.stage2_tlb.walker.walkRequestOrigin_Requested::total            0                       # Table walker requests started/completed, data/inst
system.cpu0.dstage2_mmu.stage2_tlb.walker.walkRequestOrigin_Completed::Data            0                       # Table walker requests started/completed, data/inst
system.cpu0.dstage2_mmu.stage2_tlb.walker.walkRequestOrigin_Completed::Inst            0                       # Table walker requests started/completed, data/inst
system.cpu0.dstage2_mmu.stage2_tlb.walker.walkRequestOrigin_Completed::total            0                       # Table walker requests started/completed, data/inst
system.cpu0.dstage2_mmu.stage2_tlb.walker.walkRequestOrigin::total            0                       # Table walker requests started/completed, data/inst
system.cpu0.dstage2_mmu.stage2_tlb.inst_hits            0                       # ITB inst hits
system.cpu0.dstage2_mmu.stage2_tlb.inst_misses            0                       # ITB inst misses
system.cpu0.dstage2_mmu.stage2_tlb.read_hits            0                       # DTB read hits
system.cpu0.dstage2_mmu.stage2_tlb.read_misses            0                       # DTB read misses
system.cpu0.dstage2_mmu.stage2_tlb.write_hits            0                       # DTB write hits
system.cpu0.dstage2_mmu.stage2_tlb.write_misses            0                       # DTB write misses
system.cpu0.dstage2_mmu.stage2_tlb.flush_tlb            0                       # Number of times complete TLB was flushed
system.cpu0.dstage2_mmu.stage2_tlb.flush_tlb_mva            0                       # Number of times TLB was flushed by MVA
system.cpu0.dstage2_mmu.stage2_tlb.flush_tlb_mva_asid            0                       # Number of times TLB was flushed by MVA & ASID
system.cpu0.dstage2_mmu.stage2_tlb.flush_tlb_asid            0                       # Number of times TLB was flushed by ASID
system.cpu0.dstage2_mmu.stage2_tlb.flush_entries            0                       # Number of entries that have been flushed from TLB
system.cpu0.dstage2_mmu.stage2_tlb.align_faults            0                       # Number of TLB faults due to alignment restrictions
system.cpu0.dstage2_mmu.stage2_tlb.prefetch_faults            0                       # Number of TLB faults due to prefetch
system.cpu0.dstage2_mmu.stage2_tlb.domain_faults            0                       # Number of TLB faults due to domain restrictions
system.cpu0.dstage2_mmu.stage2_tlb.perms_faults            0                       # Number of TLB faults due to permissions restrictions
system.cpu0.dstage2_mmu.stage2_tlb.read_accesses            0                       # DTB read accesses
system.cpu0.dstage2_mmu.stage2_tlb.write_accesses            0                       # DTB write accesses
system.cpu0.dstage2_mmu.stage2_tlb.inst_accesses            0                       # ITB inst accesses
system.cpu0.dstage2_mmu.stage2_tlb.hits             0                       # DTB hits
system.cpu0.dstage2_mmu.stage2_tlb.misses            0                       # DTB misses
system.cpu0.dstage2_mmu.stage2_tlb.accesses            0                       # DTB accesses
system.cpu0.dtb.walker.pwrStateResidencyTicks::UNDEFINED 3740970732500                       # Cumulative time (in ticks) in various power states
system.cpu0.dtb.walker.walks                        0                       # Table walker walks requested
system.cpu0.dtb.walker.walkRequestOrigin_Requested::Data            0                       # Table walker requests started/completed, data/inst
system.cpu0.dtb.walker.walkRequestOrigin_Requested::Inst            0                       # Table walker requests started/completed, data/inst
system.cpu0.dtb.walker.walkRequestOrigin_Requested::total            0                       # Table walker requests started/completed, data/inst
system.cpu0.dtb.walker.walkRequestOrigin_Completed::Data            0                       # Table walker requests started/completed, data/inst
system.cpu0.dtb.walker.walkRequestOrigin_Completed::Inst            0                       # Table walker requests started/completed, data/inst
system.cpu0.dtb.walker.walkRequestOrigin_Completed::total            0                       # Table walker requests started/completed, data/inst
system.cpu0.dtb.walker.walkRequestOrigin::total            0                       # Table walker requests started/completed, data/inst
system.cpu0.dtb.inst_hits                           0                       # ITB inst hits
system.cpu0.dtb.inst_misses                         0                       # ITB inst misses
system.cpu0.dtb.read_hits                           0                       # DTB read hits
system.cpu0.dtb.read_misses                         0                       # DTB read misses
system.cpu0.dtb.write_hits                          0                       # DTB write hits
system.cpu0.dtb.write_misses                        0                       # DTB write misses
system.cpu0.dtb.flush_tlb                           0                       # Number of times complete TLB was flushed
system.cpu0.dtb.flush_tlb_mva                       0                       # Number of times TLB was flushed by MVA
system.cpu0.dtb.flush_tlb_mva_asid                  0                       # Number of times TLB was flushed by MVA & ASID
system.cpu0.dtb.flush_tlb_asid                      0                       # Number of times TLB was flushed by ASID
system.cpu0.dtb.flush_entries                       0                       # Number of entries that have been flushed from TLB
system.cpu0.dtb.align_faults                        0                       # Number of TLB faults due to alignment restrictions
system.cpu0.dtb.prefetch_faults                     0                       # Number of TLB faults due to prefetch
system.cpu0.dtb.domain_faults                       0                       # Number of TLB faults due to domain restrictions
system.cpu0.dtb.perms_faults                        0                       # Number of TLB faults due to permissions restrictions
system.cpu0.dtb.read_accesses                       0                       # DTB read accesses
system.cpu0.dtb.write_accesses                      0                       # DTB write accesses
system.cpu0.dtb.inst_accesses                       0                       # ITB inst accesses
system.cpu0.dtb.hits                                0                       # DTB hits
system.cpu0.dtb.misses                              0                       # DTB misses
system.cpu0.dtb.accesses                            0                       # DTB accesses
system.cpu0.istage2_mmu.stage2_tlb.walker.pwrStateResidencyTicks::UNDEFINED 3740970732500                       # Cumulative time (in ticks) in various power states
system.cpu0.istage2_mmu.stage2_tlb.walker.walks            0                       # Table walker walks requested
system.cpu0.istage2_mmu.stage2_tlb.walker.walkRequestOrigin_Requested::Data            0                       # Table walker requests started/completed, data/inst
system.cpu0.istage2_mmu.stage2_tlb.walker.walkRequestOrigin_Requested::Inst            0                       # Table walker requests started/completed, data/inst
system.cpu0.istage2_mmu.stage2_tlb.walker.walkRequestOrigin_Requested::total            0                       # Table walker requests started/completed, data/inst
system.cpu0.istage2_mmu.stage2_tlb.walker.walkRequestOrigin_Completed::Data            0                       # Table walker requests started/completed, data/inst
system.cpu0.istage2_mmu.stage2_tlb.walker.walkRequestOrigin_Completed::Inst            0                       # Table walker requests started/completed, data/inst
system.cpu0.istage2_mmu.stage2_tlb.walker.walkRequestOrigin_Completed::total            0                       # Table walker requests started/completed, data/inst
system.cpu0.istage2_mmu.stage2_tlb.walker.walkRequestOrigin::total            0                       # Table walker requests started/completed, data/inst
system.cpu0.istage2_mmu.stage2_tlb.inst_hits            0                       # ITB inst hits
system.cpu0.istage2_mmu.stage2_tlb.inst_misses            0                       # ITB inst misses
system.cpu0.istage2_mmu.stage2_tlb.read_hits            0                       # DTB read hits
system.cpu0.istage2_mmu.stage2_tlb.read_misses            0                       # DTB read misses
system.cpu0.istage2_mmu.stage2_tlb.write_hits            0                       # DTB write hits
system.cpu0.istage2_mmu.stage2_tlb.write_misses            0                       # DTB write misses
system.cpu0.istage2_mmu.stage2_tlb.flush_tlb            0                       # Number of times complete TLB was flushed
system.cpu0.istage2_mmu.stage2_tlb.flush_tlb_mva            0                       # Number of times TLB was flushed by MVA
system.cpu0.istage2_mmu.stage2_tlb.flush_tlb_mva_asid            0                       # Number of times TLB was flushed by MVA & ASID
system.cpu0.istage2_mmu.stage2_tlb.flush_tlb_asid            0                       # Number of times TLB was flushed by ASID
system.cpu0.istage2_mmu.stage2_tlb.flush_entries            0                       # Number of entries that have been flushed from TLB
system.cpu0.istage2_mmu.stage2_tlb.align_faults            0                       # Number of TLB faults due to alignment restrictions
system.cpu0.istage2_mmu.stage2_tlb.prefetch_faults            0                       # Number of TLB faults due to prefetch
system.cpu0.istage2_mmu.stage2_tlb.domain_faults            0                       # Number of TLB faults due to domain restrictions
system.cpu0.istage2_mmu.stage2_tlb.perms_faults            0                       # Number of TLB faults due to permissions restrictions
system.cpu0.istage2_mmu.stage2_tlb.read_accesses            0                       # DTB read accesses
system.cpu0.istage2_mmu.stage2_tlb.write_accesses            0                       # DTB write accesses
system.cpu0.istage2_mmu.stage2_tlb.inst_accesses            0                       # ITB inst accesses
system.cpu0.istage2_mmu.stage2_tlb.hits             0                       # DTB hits
system.cpu0.istage2_mmu.stage2_tlb.misses            0                       # DTB misses
system.cpu0.istage2_mmu.stage2_tlb.accesses            0                       # DTB accesses
system.cpu0.itb.walker.pwrStateResidencyTicks::UNDEFINED 3740970732500                       # Cumulative time (in ticks) in various power states
system.cpu0.itb.walker.walks                        0                       # Table walker walks requested
system.cpu0.itb.walker.walkRequestOrigin_Requested::Data            0                       # Table walker requests started/completed, data/inst
system.cpu0.itb.walker.walkRequestOrigin_Requested::Inst            0                       # Table walker requests started/completed, data/inst
system.cpu0.itb.walker.walkRequestOrigin_Requested::total            0                       # Table walker requests started/completed, data/inst
system.cpu0.itb.walker.walkRequestOrigin_Completed::Data            0                       # Table walker requests started/completed, data/inst
system.cpu0.itb.walker.walkRequestOrigin_Completed::Inst            0                       # Table walker requests started/completed, data/inst
system.cpu0.itb.walker.walkRequestOrigin_Completed::total            0                       # Table walker requests started/completed, data/inst
system.cpu0.itb.walker.walkRequestOrigin::total            0                       # Table walker requests started/completed, data/inst
system.cpu0.itb.inst_hits                           0                       # ITB inst hits
system.cpu0.itb.inst_misses                         0                       # ITB inst misses
system.cpu0.itb.read_hits                           0                       # DTB read hits
system.cpu0.itb.read_misses                         0                       # DTB read misses
system.cpu0.itb.write_hits                          0                       # DTB write hits
system.cpu0.itb.write_misses                        0                       # DTB write misses
system.cpu0.itb.flush_tlb                           0                       # Number of times complete TLB was flushed
system.cpu0.itb.flush_tlb_mva                       0                       # Number of times TLB was flushed by MVA
system.cpu0.itb.flush_tlb_mva_asid                  0                       # Number of times TLB was flushed by MVA & ASID
system.cpu0.itb.flush_tlb_asid                      0                       # Number of times TLB was flushed by ASID
system.cpu0.itb.flush_entries                       0                       # Number of entries that have been flushed from TLB
system.cpu0.itb.align_faults                        0                       # Number of TLB faults due to alignment restrictions
system.cpu0.itb.prefetch_faults                     0                       # Number of TLB faults due to prefetch
system.cpu0.itb.domain_faults                       0                       # Number of TLB faults due to domain restrictions
system.cpu0.itb.perms_faults                        0                       # Number of TLB faults due to permissions restrictions
system.cpu0.itb.read_accesses                       0                       # DTB read accesses
system.cpu0.itb.write_accesses                      0                       # DTB write accesses
system.cpu0.itb.inst_accesses                       0                       # ITB inst accesses
system.cpu0.itb.hits                                0                       # DTB hits
system.cpu0.itb.misses                              0                       # DTB misses
system.cpu0.itb.accesses                            0                       # DTB accesses
system.cpu0.pwrStateResidencyTicks::ON   505123537000                       # Cumulative time (in ticks) in various power states
system.cpu0.numCycles                               0                       # number of cpu cycles simulated
system.cpu0.numWorkItemsStarted                     0                       # number of work items this cpu started
system.cpu0.numWorkItemsCompleted                   0                       # number of work items this cpu completed
system.cpu0.kern.inst.arm                           0                       # number of arm instructions executed
system.cpu0.kern.inst.quiesce                     339                       # number of quiesce instructions executed
system.cpu0.committedInsts                          0                       # Number of instructions committed
system.cpu0.committedOps                            0                       # Number of ops (including micro ops) committed
system.cpu0.num_int_alu_accesses                    0                       # Number of integer alu accesses
system.cpu0.num_fp_alu_accesses                     0                       # Number of float alu accesses
system.cpu0.num_func_calls                          0                       # number of times a function call or return occured
system.cpu0.num_conditional_control_insts            0                       # number of instructions that are conditional controls
system.cpu0.num_int_insts                           0                       # number of integer instructions
system.cpu0.num_fp_insts                            0                       # number of float instructions
system.cpu0.num_int_register_reads                  0                       # number of times the integer registers were read
system.cpu0.num_int_register_writes                 0                       # number of times the integer registers were written
system.cpu0.num_fp_register_reads                   0                       # number of times the floating registers were read
system.cpu0.num_fp_register_writes                  0                       # number of times the floating registers were written
system.cpu0.num_mem_refs                            0                       # number of memory refs
system.cpu0.num_load_insts                          0                       # Number of load instructions
system.cpu0.num_store_insts                         0                       # Number of store instructions
system.cpu0.num_idle_cycles                         0                       # Number of idle cycles
system.cpu0.num_busy_cycles                         0                       # Number of busy cycles
system.cpu0.not_idle_fraction                       0                       # Percentage of non-idle cycles
system.cpu0.idle_fraction                           1                       # Percentage of idle cycles
system.cpu0.op_class::No_OpClass                    0                       # Class of executed instruction
system.cpu0.op_class::IntAlu                        0                       # Class of executed instruction
system.cpu0.op_class::IntMult                       0                       # Class of executed instruction
system.cpu0.op_class::IntDiv                        0                       # Class of executed instruction
system.cpu0.op_class::FloatAdd                      0                       # Class of executed instruction
system.cpu0.op_class::FloatCmp                      0                       # Class of executed instruction
system.cpu0.op_class::FloatCvt                      0                       # Class of executed instruction
system.cpu0.op_class::FloatMult                     0                       # Class of executed instruction
system.cpu0.op_class::FloatDiv                      0                       # Class of executed instruction
system.cpu0.op_class::FloatSqrt                     0                       # Class of executed instruction
system.cpu0.op_class::SimdAdd                       0                       # Class of executed instruction
system.cpu0.op_class::SimdAddAcc                    0                       # Class of executed instruction
system.cpu0.op_class::SimdAlu                       0                       # Class of executed instruction
system.cpu0.op_class::SimdCmp                       0                       # Class of executed instruction
system.cpu0.op_class::SimdCvt                       0                       # Class of executed instruction
system.cpu0.op_class::SimdMisc                      0                       # Class of executed instruction
system.cpu0.op_class::SimdMult                      0                       # Class of executed instruction
system.cpu0.op_class::SimdMultAcc                   0                       # Class of executed instruction
system.cpu0.op_class::SimdShift                     0                       # Class of executed instruction
system.cpu0.op_class::SimdShiftAcc                  0                       # Class of executed instruction
system.cpu0.op_class::SimdSqrt                      0                       # Class of executed instruction
system.cpu0.op_class::SimdFloatAdd                  0                       # Class of executed instruction
system.cpu0.op_class::SimdFloatAlu                  0                       # Class of executed instruction
system.cpu0.op_class::SimdFloatCmp                  0                       # Class of executed instruction
system.cpu0.op_class::SimdFloatCvt                  0                       # Class of executed instruction
system.cpu0.op_class::SimdFloatDiv                  0                       # Class of executed instruction
system.cpu0.op_class::SimdFloatMisc                 0                       # Class of executed instruction
system.cpu0.op_class::SimdFloatMult                 0                       # Class of executed instruction
system.cpu0.op_class::SimdFloatMultAcc              0                       # Class of executed instruction
system.cpu0.op_class::SimdFloatSqrt                 0                       # Class of executed instruction
system.cpu0.op_class::MemRead                       0                       # Class of executed instruction
system.cpu0.op_class::MemWrite                      0                       # Class of executed instruction
system.cpu0.op_class::IprAccess                     0                       # Class of executed instruction
system.cpu0.op_class::InstPrefetch                  0                       # Class of executed instruction
system.cpu0.op_class::total                         0                       # Class of executed instruction
system.cpu0.dcache.tags.pwrStateResidencyTicks::UNDEFINED 3740970732500                       # Cumulative time (in ticks) in various power states
system.cpu0.dcache.tags.replacements         12217866                       # number of replacements
system.cpu0.dcache.tags.tagsinuse         1021.703538                       # Cycle average of tags in use
system.cpu0.dcache.tags.total_refs          143564977                       # Total number of references to valid blocks.
system.cpu0.dcache.tags.sampled_refs         12218860                       # Sample count of references to valid blocks.
system.cpu0.dcache.tags.avg_refs            11.749458                       # Average number of references to valid blocks.
system.cpu0.dcache.tags.warmup_cycle     3238944054500                       # Cycle when the warmup percentage was hit.
system.cpu0.dcache.tags.occ_blocks::switch_cpus0.data  1021.703538                       # Average occupied blocks per requestor
system.cpu0.dcache.tags.occ_percent::switch_cpus0.data     0.997757                       # Average percentage of cache occupancy
system.cpu0.dcache.tags.occ_percent::total     0.997757                       # Average percentage of cache occupancy
system.cpu0.dcache.tags.occ_task_id_blocks::1024          994                       # Occupied blocks per task id
system.cpu0.dcache.tags.age_task_id_blocks_1024::0           54                       # Occupied blocks per task id
system.cpu0.dcache.tags.age_task_id_blocks_1024::1          610                       # Occupied blocks per task id
system.cpu0.dcache.tags.age_task_id_blocks_1024::2          330                       # Occupied blocks per task id
system.cpu0.dcache.tags.occ_task_id_percent::1024     0.970703                       # Percentage of cache occupancy per task id
system.cpu0.dcache.tags.tag_accesses        353923453                       # Number of tag accesses
system.cpu0.dcache.tags.data_accesses       353923453                       # Number of data accesses
system.cpu0.dcache.pwrStateResidencyTicks::UNDEFINED 3740970732500                       # Cumulative time (in ticks) in various power states
system.cpu0.dcache.ReadReq_hits::switch_cpus0.data     96706826                       # number of ReadReq hits
system.cpu0.dcache.ReadReq_hits::total       96706826                       # number of ReadReq hits
system.cpu0.dcache.WriteReq_hits::switch_cpus0.data     46304808                       # number of WriteReq hits
system.cpu0.dcache.WriteReq_hits::total      46304808                       # number of WriteReq hits
system.cpu0.dcache.SoftPFReq_hits::switch_cpus0.data        41674                       # number of SoftPFReq hits
system.cpu0.dcache.SoftPFReq_hits::total        41674                       # number of SoftPFReq hits
system.cpu0.dcache.LoadLockedReq_hits::switch_cpus0.data       236029                       # number of LoadLockedReq hits
system.cpu0.dcache.LoadLockedReq_hits::total       236029                       # number of LoadLockedReq hits
system.cpu0.dcache.StoreCondReq_hits::switch_cpus0.data       234858                       # number of StoreCondReq hits
system.cpu0.dcache.StoreCondReq_hits::total       234858                       # number of StoreCondReq hits
system.cpu0.dcache.demand_hits::switch_cpus0.data    143011634                       # number of demand (read+write) hits
system.cpu0.dcache.demand_hits::total       143011634                       # number of demand (read+write) hits
system.cpu0.dcache.overall_hits::switch_cpus0.data    143053308                       # number of overall hits
system.cpu0.dcache.overall_hits::total      143053308                       # number of overall hits
system.cpu0.dcache.ReadReq_misses::switch_cpus0.data     25833201                       # number of ReadReq misses
system.cpu0.dcache.ReadReq_misses::total     25833201                       # number of ReadReq misses
system.cpu0.dcache.WriteReq_misses::switch_cpus0.data      1426551                       # number of WriteReq misses
system.cpu0.dcache.WriteReq_misses::total      1426551                       # number of WriteReq misses
system.cpu0.dcache.SoftPFReq_misses::switch_cpus0.data        53920                       # number of SoftPFReq misses
system.cpu0.dcache.SoftPFReq_misses::total        53920                       # number of SoftPFReq misses
system.cpu0.dcache.LoadLockedReq_misses::switch_cpus0.data         4951                       # number of LoadLockedReq misses
system.cpu0.dcache.LoadLockedReq_misses::total         4951                       # number of LoadLockedReq misses
system.cpu0.dcache.StoreCondReq_misses::switch_cpus0.data         4504                       # number of StoreCondReq misses
system.cpu0.dcache.StoreCondReq_misses::total         4504                       # number of StoreCondReq misses
system.cpu0.dcache.demand_misses::switch_cpus0.data     27259752                       # number of demand (read+write) misses
system.cpu0.dcache.demand_misses::total      27259752                       # number of demand (read+write) misses
system.cpu0.dcache.overall_misses::switch_cpus0.data     27313672                       # number of overall misses
system.cpu0.dcache.overall_misses::total     27313672                       # number of overall misses
system.cpu0.dcache.ReadReq_miss_latency::switch_cpus0.data 1333001057000                       # number of ReadReq miss cycles
system.cpu0.dcache.ReadReq_miss_latency::total 1333001057000                       # number of ReadReq miss cycles
system.cpu0.dcache.WriteReq_miss_latency::switch_cpus0.data  31985500012                       # number of WriteReq miss cycles
system.cpu0.dcache.WriteReq_miss_latency::total  31985500012                       # number of WriteReq miss cycles
system.cpu0.dcache.LoadLockedReq_miss_latency::switch_cpus0.data    192061500                       # number of LoadLockedReq miss cycles
system.cpu0.dcache.LoadLockedReq_miss_latency::total    192061500                       # number of LoadLockedReq miss cycles
system.cpu0.dcache.StoreCondReq_miss_latency::switch_cpus0.data     28618500                       # number of StoreCondReq miss cycles
system.cpu0.dcache.StoreCondReq_miss_latency::total     28618500                       # number of StoreCondReq miss cycles
system.cpu0.dcache.StoreCondFailReq_miss_latency::switch_cpus0.data        80000                       # number of StoreCondFailReq miss cycles
system.cpu0.dcache.StoreCondFailReq_miss_latency::total        80000                       # number of StoreCondFailReq miss cycles
system.cpu0.dcache.demand_miss_latency::switch_cpus0.data 1364986557012                       # number of demand (read+write) miss cycles
system.cpu0.dcache.demand_miss_latency::total 1364986557012                       # number of demand (read+write) miss cycles
system.cpu0.dcache.overall_miss_latency::switch_cpus0.data 1364986557012                       # number of overall miss cycles
system.cpu0.dcache.overall_miss_latency::total 1364986557012                       # number of overall miss cycles
system.cpu0.dcache.ReadReq_accesses::switch_cpus0.data    122540027                       # number of ReadReq accesses(hits+misses)
system.cpu0.dcache.ReadReq_accesses::total    122540027                       # number of ReadReq accesses(hits+misses)
system.cpu0.dcache.WriteReq_accesses::switch_cpus0.data     47731359                       # number of WriteReq accesses(hits+misses)
system.cpu0.dcache.WriteReq_accesses::total     47731359                       # number of WriteReq accesses(hits+misses)
system.cpu0.dcache.SoftPFReq_accesses::switch_cpus0.data        95594                       # number of SoftPFReq accesses(hits+misses)
system.cpu0.dcache.SoftPFReq_accesses::total        95594                       # number of SoftPFReq accesses(hits+misses)
system.cpu0.dcache.LoadLockedReq_accesses::switch_cpus0.data       240980                       # number of LoadLockedReq accesses(hits+misses)
system.cpu0.dcache.LoadLockedReq_accesses::total       240980                       # number of LoadLockedReq accesses(hits+misses)
system.cpu0.dcache.StoreCondReq_accesses::switch_cpus0.data       239362                       # number of StoreCondReq accesses(hits+misses)
system.cpu0.dcache.StoreCondReq_accesses::total       239362                       # number of StoreCondReq accesses(hits+misses)
system.cpu0.dcache.demand_accesses::switch_cpus0.data    170271386                       # number of demand (read+write) accesses
system.cpu0.dcache.demand_accesses::total    170271386                       # number of demand (read+write) accesses
system.cpu0.dcache.overall_accesses::switch_cpus0.data    170366980                       # number of overall (read+write) accesses
system.cpu0.dcache.overall_accesses::total    170366980                       # number of overall (read+write) accesses
system.cpu0.dcache.ReadReq_miss_rate::switch_cpus0.data     0.210814                       # miss rate for ReadReq accesses
system.cpu0.dcache.ReadReq_miss_rate::total     0.210814                       # miss rate for ReadReq accesses
system.cpu0.dcache.WriteReq_miss_rate::switch_cpus0.data     0.029887                       # miss rate for WriteReq accesses
system.cpu0.dcache.WriteReq_miss_rate::total     0.029887                       # miss rate for WriteReq accesses
system.cpu0.dcache.SoftPFReq_miss_rate::switch_cpus0.data     0.564052                       # miss rate for SoftPFReq accesses
system.cpu0.dcache.SoftPFReq_miss_rate::total     0.564052                       # miss rate for SoftPFReq accesses
system.cpu0.dcache.LoadLockedReq_miss_rate::switch_cpus0.data     0.020545                       # miss rate for LoadLockedReq accesses
system.cpu0.dcache.LoadLockedReq_miss_rate::total     0.020545                       # miss rate for LoadLockedReq accesses
system.cpu0.dcache.StoreCondReq_miss_rate::switch_cpus0.data     0.018817                       # miss rate for StoreCondReq accesses
system.cpu0.dcache.StoreCondReq_miss_rate::total     0.018817                       # miss rate for StoreCondReq accesses
system.cpu0.dcache.demand_miss_rate::switch_cpus0.data     0.160096                       # miss rate for demand accesses
system.cpu0.dcache.demand_miss_rate::total     0.160096                       # miss rate for demand accesses
system.cpu0.dcache.overall_miss_rate::switch_cpus0.data     0.160323                       # miss rate for overall accesses
system.cpu0.dcache.overall_miss_rate::total     0.160323                       # miss rate for overall accesses
system.cpu0.dcache.ReadReq_avg_miss_latency::switch_cpus0.data 51600.305243                       # average ReadReq miss latency
system.cpu0.dcache.ReadReq_avg_miss_latency::total 51600.305243                       # average ReadReq miss latency
system.cpu0.dcache.WriteReq_avg_miss_latency::switch_cpus0.data 22421.560822                       # average WriteReq miss latency
system.cpu0.dcache.WriteReq_avg_miss_latency::total 22421.560822                       # average WriteReq miss latency
system.cpu0.dcache.LoadLockedReq_avg_miss_latency::switch_cpus0.data 38792.466168                       # average LoadLockedReq miss latency
system.cpu0.dcache.LoadLockedReq_avg_miss_latency::total 38792.466168                       # average LoadLockedReq miss latency
system.cpu0.dcache.StoreCondReq_avg_miss_latency::switch_cpus0.data  6354.018650                       # average StoreCondReq miss latency
system.cpu0.dcache.StoreCondReq_avg_miss_latency::total  6354.018650                       # average StoreCondReq miss latency
system.cpu0.dcache.StoreCondFailReq_avg_miss_latency::switch_cpus0.data          inf                       # average StoreCondFailReq miss latency
system.cpu0.dcache.StoreCondFailReq_avg_miss_latency::total          inf                       # average StoreCondFailReq miss latency
system.cpu0.dcache.demand_avg_miss_latency::switch_cpus0.data 50073.329978                       # average overall miss latency
[...]
system.switch_cpus3.commit.op_class_0::SimdFloatAlu            0      0.00%     64.74% # Class of committed instruction
system.switch_cpus3.commit.op_class_0::SimdFloatCmp            5      0.00%     64.74% # Class of committed instruction
system.switch_cpus3.commit.op_class_0::SimdFloatCvt            4      0.00%     64.74% # Class of committed instruction
system.switch_cpus3.commit.op_class_0::SimdFloatDiv            0      0.00%     64.74% # Class of committed instruction
system.switch_cpus3.commit.op_class_0::SimdFloatMisc          853      0.00%     64.74% # Class of committed instruction
system.switch_cpus3.commit.op_class_0::SimdFloatMult            2      0.00%     64.74% # Class of committed instruction
system.switch_cpus3.commit.op_class_0::SimdFloatMultAcc            0      0.00%     64.74% # Class of committed instruction
system.switch_cpus3.commit.op_class_0::SimdFloatSqrt            0      0.00%     64.74% # Class of committed instruction
system.switch_cpus3.commit.op_class_0::MemRead    213495140     17.76%     82.50% # Class of committed instruction
system.switch_cpus3.commit.op_class_0::MemWrite    210465379     17.50%    100.00% # Class of committed instruction
system.switch_cpus3.commit.op_class_0::IprAccess            0      0.00%    100.00% # Class of committed instruction
system.switch_cpus3.commit.op_class_0::InstPrefetch            0      0.00%    100.00% # Class of committed instruction
system.switch_cpus3.commit.op_class_0::total   1202369975                       # Class of committed instruction
system.switch_cpus3.commit.bw_lim_events     26945073                       # number cycles where commit BW limit reached
system.switch_cpus3.rob.rob_reads          2117407310                       # The number of ROB reads
system.switch_cpus3.rob.rob_writes         2595738873                       # The number of ROB writes
system.switch_cpus3.timesIdled                 755831                       # Number of times that the entire CPU went into an idle state and unscheduled itself
system.switch_cpus3.idleCycles              129096401                       # Total number of cycles that the CPU has spent unscheduled due to idling
system.switch_cpus3.quiesceCycles             8109512                       # Total number of cycles that CPU has spent quiesced or waiting for an interrupt
system.switch_cpus3.committedInsts          965797939                       # Number of Instructions Simulated
system.switch_cpus3.committedOps           1202349792                       # Number of Ops (including micro ops) Simulated
system.switch_cpus3.cpi                      1.036173                       # CPI: Cycles Per Instruction
system.switch_cpus3.cpi_total                1.036173                       # CPI: Total CPI of All Threads
system.switch_cpus3.ipc                      0.965090                       # IPC: Instructions Per Cycle
system.switch_cpus3.ipc_total                0.965090                       # IPC: Total IPC of All Threads
system.switch_cpus3.int_regfile_reads      1405078474                       # number of integer regfile reads
system.switch_cpus3.int_regfile_writes      723148411                       # number of integer regfile writes
system.switch_cpus3.fp_regfile_reads             4049                       # number of floating regfile reads
system.switch_cpus3.fp_regfile_writes            2574                       # number of floating regfile writes
system.switch_cpus3.cc_regfile_reads       4387580831                       # number of cc regfile reads
system.switch_cpus3.cc_regfile_writes       692923039                       # number of cc regfile writes
system.switch_cpus3.misc_regfile_reads     2191166181                       # number of misc regfile reads
system.switch_cpus3.misc_regfile_writes       4040287                       # number of misc regfile writes
system.tol2bus.snoop_filter.tot_requests     69279668                       # Total number of requests made to the snoop filter.
system.tol2bus.snoop_filter.hit_single_requests     34384115                       # Number of requests hitting in the snoop filter with a single holder of the requested data.
system.tol2bus.snoop_filter.hit_multi_requests      1994835                       # Number of requests hitting in the snoop filter with multiple (>1) holders of the requested data.
system.tol2bus.snoop_filter.tot_snoops         135578                       # Total number of snoops made to the snoop filter.
system.tol2bus.snoop_filter.hit_single_snoops       132979                       # Number of snoops hitting in the snoop filter with a single holder of the requested data.
system.tol2bus.snoop_filter.hit_multi_snoops         2599                       # Number of snoops hitting in the snoop filter with multiple (>1) holders of the requested data.
system.tol2bus.pwrStateResidencyTicks::UNDEFINED 3740970732500                       # Cumulative time (in ticks) in various power states
system.tol2bus.trans_dist::ReadReq               4494                       # Transaction distribution
system.tol2bus.trans_dist::ReadResp          27191673                       # Transaction distribution
system.tol2bus.trans_dist::WriteReq              5397                       # Transaction distribution
system.tol2bus.trans_dist::WriteResp             5397                       # Transaction distribution
system.tol2bus.trans_dist::WritebackDirty     20503916                       # Transaction distribution
system.tol2bus.trans_dist::WritebackClean     22482503                       # Transaction distribution
system.tol2bus.trans_dist::CleanEvict         3767162                       # Transaction distribution
system.tol2bus.trans_dist::HardPFReq         10089101                       # Transaction distribution
system.tol2bus.trans_dist::UpgradeReq          133203                       # Transaction distribution
system.tol2bus.trans_dist::SCUpgradeReq         16660                       # Transaction distribution
system.tol2bus.trans_dist::UpgradeResp         149863                       # Transaction distribution
system.tol2bus.trans_dist::SCUpgradeFailReq           10                       # Transaction distribution
system.tol2bus.trans_dist::UpgradeFailResp           10                       # Transaction distribution
system.tol2bus.trans_dist::ReadExReq          7463529                       # Transaction distribution
system.tol2bus.trans_dist::ReadExResp         7463529                       # Transaction distribution
system.tol2bus.trans_dist::ReadCleanReq      14052249                       # Transaction distribution
system.tol2bus.trans_dist::ReadSharedReq     13134979                       # Transaction distribution
system.tol2bus.trans_dist::InvalidateReq         8495                       # Transaction distribution
system.tol2bus.pkt_count_system.cpu0.icache.mem_side::system.l2.cpu_side      2340425                       # Packet count per connected master and slave (bytes)
system.tol2bus.pkt_count_system.cpu0.dcache.mem_side::system.l2.cpu_side     36693393                       # Packet count per connected master and slave (bytes)
system.tol2bus.pkt_count_system.cpu0.itb_walker_cache.mem_side::system.l2.cpu_side         2942                       # Packet count per connected master and slave (bytes)
system.tol2bus.pkt_count_system.cpu0.dtb_walker_cache.mem_side::system.l2.cpu_side      4538023                       # Packet count per connected master and slave (bytes)
system.tol2bus.pkt_count_system.cpu1.icache.mem_side::system.l2.cpu_side      5075039                       # Packet count per connected master and slave (bytes)
system.tol2bus.pkt_count_system.cpu1.dcache.mem_side::system.l2.cpu_side      1269912                       # Packet count per connected master and slave (bytes)
system.tol2bus.pkt_count_system.cpu1.itb_walker_cache.mem_side::system.l2.cpu_side         9903                       # Packet count per connected master and slave (bytes)
system.tol2bus.pkt_count_system.cpu1.dtb_walker_cache.mem_side::system.l2.cpu_side        30224                       # Packet count per connected master and slave (bytes)
system.tol2bus.pkt_count_system.cpu2.icache.mem_side::system.l2.cpu_side      5564519                       # Packet count per connected master and slave (bytes)
system.tol2bus.pkt_count_system.cpu2.dcache.mem_side::system.l2.cpu_side     23386797                       # Packet count per connected master and slave (bytes)
system.tol2bus.pkt_count_system.cpu2.itb_walker_cache.mem_side::system.l2.cpu_side         2901                       # Packet count per connected master and slave (bytes)
system.tol2bus.pkt_count_system.cpu2.dtb_walker_cache.mem_side::system.l2.cpu_side       165499                       # Packet count per connected master and slave (bytes)
system.tol2bus.pkt_count_system.cpu3.icache.mem_side::system.l2.cpu_side     24136492                       # Packet count per connected master and slave (bytes)
system.tol2bus.pkt_count_system.cpu3.dcache.mem_side::system.l2.cpu_side       658052                       # Packet count per connected master and slave (bytes)
system.tol2bus.pkt_count_system.cpu3.itb_walker_cache.mem_side::system.l2.cpu_side         4497                       # Packet count per connected master and slave (bytes)
system.tol2bus.pkt_count_system.cpu3.dtb_walker_cache.mem_side::system.l2.cpu_side        15178                       # Packet count per connected master and slave (bytes)
system.tol2bus.pkt_count::total             103893796                       # Packet count per connected master and slave (bytes)
system.tol2bus.pkt_size_system.cpu0.icache.mem_side::system.l2.cpu_side     99856640                       # Cumulative packet size per connected master and slave (bytes)
system.tol2bus.pkt_size_system.cpu0.dcache.mem_side::system.l2.cpu_side   1563746714                       # Cumulative packet size per connected master and slave (bytes)
system.tol2bus.pkt_size_system.cpu0.itb_walker_cache.mem_side::system.l2.cpu_side        83648                       # Cumulative packet size per connected master and slave (bytes)
system.tol2bus.pkt_size_system.cpu0.dtb_walker_cache.mem_side::system.l2.cpu_side    193483584                       # Cumulative packet size per connected master and slave (bytes)
system.tol2bus.pkt_size_system.cpu1.icache.mem_side::system.l2.cpu_side    216533888                       # Cumulative packet size per connected master and slave (bytes)
system.tol2bus.pkt_size_system.cpu1.dcache.mem_side::system.l2.cpu_side     53007132                       # Cumulative packet size per connected master and slave (bytes)
system.tol2bus.pkt_size_system.cpu1.itb_walker_cache.mem_side::system.l2.cpu_side       340032                       # Cumulative packet size per connected master and slave (bytes)
system.tol2bus.pkt_size_system.cpu1.dtb_walker_cache.mem_side::system.l2.cpu_side      1143040                       # Cumulative packet size per connected master and slave (bytes)
system.tol2bus.pkt_size_system.cpu2.icache.mem_side::system.l2.cpu_side    237418496                       # Cumulative packet size per connected master and slave (bytes)
system.tol2bus.pkt_size_system.cpu2.dcache.mem_side::system.l2.cpu_side    987459237                       # Cumulative packet size per connected master and slave (bytes)
system.tol2bus.pkt_size_system.cpu2.itb_walker_cache.mem_side::system.l2.cpu_side        70976                       # Cumulative packet size per connected master and slave (bytes)
system.tol2bus.pkt_size_system.cpu2.dtb_walker_cache.mem_side::system.l2.cpu_side      1908608                       # Cumulative packet size per connected master and slave (bytes)
system.tol2bus.pkt_size_system.cpu3.icache.mem_side::system.l2.cpu_side   1029823104                       # Cumulative packet size per connected master and slave (bytes)
system.tol2bus.pkt_size_system.cpu3.dcache.mem_side::system.l2.cpu_side     27205269                       # Cumulative packet size per connected master and slave (bytes)
system.tol2bus.pkt_size_system.cpu3.itb_walker_cache.mem_side::system.l2.cpu_side       129600                       # Cumulative packet size per connected master and slave (bytes)
system.tol2bus.pkt_size_system.cpu3.dtb_walker_cache.mem_side::system.l2.cpu_side       545536                       # Cumulative packet size per connected master and slave (bytes)
system.tol2bus.pkt_size::total             4412755504                       # Cumulative packet size per connected master and slave (bytes)
system.tol2bus.snoops                        22579440                       # Total snoops (count)
system.tol2bus.snoopTraffic                 556108608                       # Total snoop traffic (bytes)
system.tol2bus.snoop_fanout::samples         57187110                       # Request fanout histogram
system.tol2bus.snoop_fanout::mean            0.041675                       # Request fanout histogram
system.tol2bus.snoop_fanout::stdev           0.235437                       # Request fanout histogram
system.tol2bus.snoop_fanout::underflows             0      0.00%      0.00% # Request fanout histogram
system.tol2bus.snoop_fanout::0               55152909     96.44%     96.44% # Request fanout histogram
system.tol2bus.snoop_fanout::1                1759385      3.08%     99.52% # Request fanout histogram
system.tol2bus.snoop_fanout::2                 212882      0.37%     99.89% # Request fanout histogram
system.tol2bus.snoop_fanout::3                  54932      0.10%     99.99% # Request fanout histogram
system.tol2bus.snoop_fanout::4                   3271      0.01%     99.99% # Request fanout histogram
system.tol2bus.snoop_fanout::5                   2455      0.00%    100.00% # Request fanout histogram
system.tol2bus.snoop_fanout::6                    946      0.00%    100.00% # Request fanout histogram
system.tol2bus.snoop_fanout::7                    330      0.00%    100.00% # Request fanout histogram
system.tol2bus.snoop_fanout::8                      0      0.00%    100.00% # Request fanout histogram
system.tol2bus.snoop_fanout::9                      0      0.00%    100.00% # Request fanout histogram
system.tol2bus.snoop_fanout::10                     0      0.00%    100.00% # Request fanout histogram
system.tol2bus.snoop_fanout::11                     0      0.00%    100.00% # Request fanout histogram
system.tol2bus.snoop_fanout::12                     0      0.00%    100.00% # Request fanout histogram
system.tol2bus.snoop_fanout::13                     0      0.00%    100.00% # Request fanout histogram
system.tol2bus.snoop_fanout::14                     0      0.00%    100.00% # Request fanout histogram
system.tol2bus.snoop_fanout::15                     0      0.00%    100.00% # Request fanout histogram
system.tol2bus.snoop_fanout::16                     0      0.00%    100.00% # Request fanout histogram
system.tol2bus.snoop_fanout::overflows              0      0.00%    100.00% # Request fanout histogram
system.tol2bus.snoop_fanout::min_value              0                       # Request fanout histogram
system.tol2bus.snoop_fanout::max_value              7                       # Request fanout histogram
system.tol2bus.snoop_fanout::total           57187110                       # Request fanout histogram
system.tol2bus.reqLayer0.occupancy        69125763827                       # Layer occupancy (ticks)
system.tol2bus.reqLayer0.utilization             13.7                       # Layer utilization (%)
system.tol2bus.snoopLayer0.occupancy          1701796                       # Layer occupancy (ticks)
system.tol2bus.snoopLayer0.utilization            0.0                       # Layer utilization (%)
system.tol2bus.respLayer0.occupancy        1172777918                       # Layer occupancy (ticks)
system.tol2bus.respLayer0.utilization             0.2                       # Layer utilization (%)
system.tol2bus.respLayer1.occupancy       18413146758                       # Layer occupancy (ticks)
system.tol2bus.respLayer1.utilization             3.7                       # Layer utilization (%)
system.tol2bus.respLayer2.occupancy           2457989                       # Layer occupancy (ticks)
system.tol2bus.respLayer2.utilization             0.0                       # Layer utilization (%)
system.tol2bus.respLayer3.occupancy        2274133726                       # Layer occupancy (ticks)
system.tol2bus.respLayer3.utilization             0.5                       # Layer utilization (%)
system.tol2bus.respLayer4.occupancy        2543172696                       # Layer occupancy (ticks)
system.tol2bus.respLayer4.utilization             0.5                       # Layer utilization (%)
system.tol2bus.respLayer5.occupancy         646008569                       # Layer occupancy (ticks)
system.tol2bus.respLayer5.utilization             0.1                       # Layer utilization (%)
system.tol2bus.respLayer6.occupancy           6917933                       # Layer occupancy (ticks)
system.tol2bus.respLayer6.utilization             0.0                       # Layer utilization (%)
system.tol2bus.respLayer7.occupancy          18649793                       # Layer occupancy (ticks)
system.tol2bus.respLayer7.utilization             0.0                       # Layer utilization (%)
system.tol2bus.respLayer8.occupancy        2790128754                       # Layer occupancy (ticks)
system.tol2bus.respLayer8.utilization             0.6                       # Layer utilization (%)
system.tol2bus.respLayer9.occupancy       11672027825                       # Layer occupancy (ticks)
system.tol2bus.respLayer9.utilization             2.3                       # Layer utilization (%)
system.tol2bus.respLayer10.occupancy          2691493                       # Layer occupancy (ticks)
system.tol2bus.respLayer10.utilization            0.0                       # Layer utilization (%)
system.tol2bus.respLayer11.occupancy        203648734                       # Layer occupancy (ticks)
system.tol2bus.respLayer11.utilization            0.0                       # Layer utilization (%)
system.tol2bus.respLayer12.occupancy      12084430730                       # Layer occupancy (ticks)
system.tol2bus.respLayer12.utilization            2.4                       # Layer utilization (%)
system.tol2bus.respLayer13.occupancy        336501415                       # Layer occupancy (ticks)
system.tol2bus.respLayer13.utilization            0.1                       # Layer utilization (%)
system.tol2bus.respLayer14.occupancy          3717481                       # Layer occupancy (ticks)
system.tol2bus.respLayer14.utilization            0.0                       # Layer utilization (%)
system.tol2bus.respLayer15.occupancy         10019423                       # Layer occupancy (ticks)
system.tol2bus.respLayer15.utilization            0.0                       # Layer utilization (%)
system.switch_cpus0.kern.inst.arm                   0                       # number of arm instructions executed
system.switch_cpus0.kern.inst.quiesce               0                       # number of quiesce instructions executed
system.switch_cpus1.kern.inst.arm                   0                       # number of arm instructions executed
system.switch_cpus1.kern.inst.quiesce               0                       # number of quiesce instructions executed
system.switch_cpus2.kern.inst.arm                   0                       # number of arm instructions executed
system.switch_cpus2.kern.inst.quiesce               0                       # number of quiesce instructions executed
system.switch_cpus3.kern.inst.arm                   0                       # number of arm instructions executed
system.switch_cpus3.kern.inst.quiesce               0                       # number of quiesce instructions executed

---------- End Simulation Statistics   ----------
