
---------- Begin Simulation Statistics ----------
sim_seconds                                  0.504029                       # Number of seconds simulated
sim_ticks                                504029039500                       # Number of ticks simulated
final_tick                               3740565835500                       # Number of ticks from beginning of simulation (restored from checkpoints and never reset)
sim_freq                                 1000000000000                       # Frequency of simulated ticks
host_inst_rate                                 103268                       # Simulator instruction rate (inst/s)
host_op_rate                                   123370                       # Simulator op (including micro ops) rate (op/s)
host_tick_rate                               18474118                       # Simulator tick rate (ticks/s)
host_mem_usage                                2644044                       # Number of bytes of host memory used
host_seconds                                 27282.98                       # Real time elapsed on the host
sim_insts                                  2817460191                       # Number of instructions simulated
sim_ops                                    3365903219                       # Number of ops (including micro ops) simulated
system.voltage_domain.voltage                       1                       # Voltage in Volts
system.clk_domain.clock                          1000                       # Clock period in ticks
system.mem_ctrls.pwrStateResidencyTicks::UNDEFINED 3740565835500                       # Cumulative time (in ticks) in various power states
system.mem_ctrls.bytes_read::l2.prefetcher    464459328                       # Number of bytes read from this memory
system.mem_ctrls.bytes_read::switch_cpus0.dtb.walker      4255168                       # Number of bytes read from this memory
system.mem_ctrls.bytes_read::switch_cpus0.itb.walker        24896                       # Number of bytes read from this memory
system.mem_ctrls.bytes_read::switch_cpus0.inst     15983552                       # Number of bytes read from this memory
system.mem_ctrls.bytes_read::switch_cpus0.data    241625472                       # Number of bytes read from this memory
system.mem_ctrls.bytes_read::switch_cpus1.dtb.walker       300480                       # Number of bytes read from this memory
system.mem_ctrls.bytes_read::switch_cpus1.itb.walker       105088                       # Number of bytes read from this memory
system.mem_ctrls.bytes_read::switch_cpus1.inst     18336000                       # Number of bytes read from this memory
system.mem_ctrls.bytes_read::switch_cpus1.data      6565952                       # Number of bytes read from this memory
system.mem_ctrls.bytes_read::switch_cpus2.dtb.walker       437376                       # Number of bytes read from this memory
system.mem_ctrls.bytes_read::switch_cpus2.itb.walker        17024                       # Number of bytes read from this memory
system.mem_ctrls.bytes_read::switch_cpus2.inst     27918464                       # Number of bytes read from this memory
system.mem_ctrls.bytes_read::switch_cpus2.data     49640512                       # Number of bytes read from this memory
system.mem_ctrls.bytes_read::switch_cpus3.dtb.walker       155584                       # Number of bytes read from this memory
system.mem_ctrls.bytes_read::switch_cpus3.itb.walker        46528                       # Number of bytes read from this memory
system.mem_ctrls.bytes_read::switch_cpus3.inst     48554880                       # Number of bytes read from this memory
system.mem_ctrls.bytes_read::switch_cpus3.data      4515712                       # Number of bytes read from this memory
system.mem_ctrls.bytes_read::total          882942016                       # Number of bytes read from this memory
system.mem_ctrls.bytes_inst_read::switch_cpus0.inst     15983552                       # Number of instructions bytes read from this memory
system.mem_ctrls.bytes_inst_read::switch_cpus1.inst     18336000                       # Number of instructions bytes read from this memory
system.mem_ctrls.bytes_inst_read::switch_cpus2.inst     27918464                       # Number of instructions bytes read from this memory
system.mem_ctrls.bytes_inst_read::switch_cpus3.inst     48554880                       # Number of instructions bytes read from this memory
system.mem_ctrls.bytes_inst_read::total     110792896                       # Number of instructions bytes read from this memory
system.mem_ctrls.bytes_written::writebacks    551981824                       # Number of bytes written to this memory
system.mem_ctrls.bytes_written::total       551981824                       # Number of bytes written to this memory
system.mem_ctrls.num_reads::l2.prefetcher      7257177                       # Number of read requests responded to by this memory
system.mem_ctrls.num_reads::switch_cpus0.dtb.walker        66487                       # Number of read requests responded to by this memory
system.mem_ctrls.num_reads::switch_cpus0.itb.walker          389                       # Number of read requests responded to by this memory
system.mem_ctrls.num_reads::switch_cpus0.inst       249743                       # Number of read requests responded to by this memory
system.mem_ctrls.num_reads::switch_cpus0.data      3775398                       # Number of read requests responded to by this memory
system.mem_ctrls.num_reads::switch_cpus1.dtb.walker         4695                       # Number of read requests responded to by this memory
system.mem_ctrls.num_reads::switch_cpus1.itb.walker         1642                       # Number of read requests responded to by this memory
system.mem_ctrls.num_reads::switch_cpus1.inst       286500                       # Number of read requests responded to by this memory
system.mem_ctrls.num_reads::switch_cpus1.data       102593                       # Number of read requests responded to by this memory
system.mem_ctrls.num_reads::switch_cpus2.dtb.walker         6834                       # Number of read requests responded to by this memory
system.mem_ctrls.num_reads::switch_cpus2.itb.walker          266                       # Number of read requests responded to by this memory
system.mem_ctrls.num_reads::switch_cpus2.inst       436226                       # Number of read requests responded to by this memory
system.mem_ctrls.num_reads::switch_cpus2.data       775633                       # Number of read requests responded to by this memory
system.mem_ctrls.num_reads::switch_cpus3.dtb.walker         2431                       # Number of read requests responded to by this memory
system.mem_ctrls.num_reads::switch_cpus3.itb.walker          727                       # Number of read requests responded to by this memory
system.mem_ctrls.num_reads::switch_cpus3.inst       758670                       # Number of read requests responded to by this memory
system.mem_ctrls.num_reads::switch_cpus3.data        70558                       # Number of read requests responded to by this memory
system.mem_ctrls.num_reads::total            13795969                       # Number of read requests responded to by this memory
system.mem_ctrls.num_writes::writebacks       8624716                       # Number of write requests responded to by this memory
system.mem_ctrls.num_writes::total            8624716                       # Number of write requests responded to by this memory
system.mem_ctrls.bw_read::l2.prefetcher     921493191                       # Total read bandwidth from this memory (bytes/s)
system.mem_ctrls.bw_read::switch_cpus0.dtb.walker      8442307                       # Total read bandwidth from this memory (bytes/s)
system.mem_ctrls.bw_read::switch_cpus0.itb.walker        49394                       # Total read bandwidth from this memory (bytes/s)
system.mem_ctrls.bw_read::switch_cpus0.inst     31711570                       # Total read bandwidth from this memory (bytes/s)
system.mem_ctrls.bw_read::switch_cpus0.data    479387998                       # Total read bandwidth from this memory (bytes/s)
system.mem_ctrls.bw_read::switch_cpus1.dtb.walker       596156                       # Total read bandwidth from this memory (bytes/s)
system.mem_ctrls.bw_read::switch_cpus1.itb.walker       208496                       # Total read bandwidth from this memory (bytes/s)
system.mem_ctrls.bw_read::switch_cpus1.inst     36378856                       # Total read bandwidth from this memory (bytes/s)
system.mem_ctrls.bw_read::switch_cpus1.data     13026932                       # Total read bandwidth from this memory (bytes/s)
system.mem_ctrls.bw_read::switch_cpus2.dtb.walker       867760                       # Total read bandwidth from this memory (bytes/s)
system.mem_ctrls.bw_read::switch_cpus2.itb.walker        33776                       # Total read bandwidth from this memory (bytes/s)
system.mem_ctrls.bw_read::switch_cpus2.inst     55390586                       # Total read bandwidth from this memory (bytes/s)
system.mem_ctrls.bw_read::switch_cpus2.data     98487405                       # Total read bandwidth from this memory (bytes/s)
system.mem_ctrls.bw_read::switch_cpus3.dtb.walker       308681                       # Total read bandwidth from this memory (bytes/s)
system.mem_ctrls.bw_read::switch_cpus3.itb.walker        92312                       # Total read bandwidth from this memory (bytes/s)
system.mem_ctrls.bw_read::switch_cpus3.inst     96333497                       # Total read bandwidth from this memory (bytes/s)
system.mem_ctrls.bw_read::switch_cpus3.data      8959230                       # Total read bandwidth from this memory (bytes/s)
system.mem_ctrls.bw_read::total            1751768146                       # Total read bandwidth from this memory (bytes/s)
system.mem_ctrls.bw_inst_read::switch_cpus0.inst     31711570                       # Instruction read bandwidth from this memory (bytes/s)
system.mem_ctrls.bw_inst_read::switch_cpus1.inst     36378856                       # Instruction read bandwidth from this memory (bytes/s)
system.mem_ctrls.bw_inst_read::switch_cpus2.inst     55390586                       # Instruction read bandwidth from this memory (bytes/s)
system.mem_ctrls.bw_inst_read::switch_cpus3.inst     96333497                       # Instruction read bandwidth from this memory (bytes/s)
system.mem_ctrls.bw_inst_read::total        219814509                       # Instruction read bandwidth from this memory (bytes/s)
system.mem_ctrls.bw_write::writebacks      1095138932                       # Write bandwidth from this memory (bytes/s)
system.mem_ctrls.bw_write::total           1095138932                       # Write bandwidth from this memory (bytes/s)
system.mem_ctrls.bw_total::writebacks      1095138932                       # Total bandwidth to/from this memory (bytes/s)
system.mem_ctrls.bw_total::l2.prefetcher    921493191                       # Total bandwidth to/from this memory (bytes/s)
system.mem_ctrls.bw_total::switch_cpus0.dtb.walker      8442307                       # Total bandwidth to/from this memory (bytes/s)
system.mem_ctrls.bw_total::switch_cpus0.itb.walker        49394                       # Total bandwidth to/from this memory (bytes/s)
system.mem_ctrls.bw_total::switch_cpus0.inst     31711570                       # Total bandwidth to/from this memory (bytes/s)
system.mem_ctrls.bw_total::switch_cpus0.data    479387998                       # Total bandwidth to/from this memory (bytes/s)
system.mem_ctrls.bw_total::switch_cpus1.dtb.walker       596156                       # Total bandwidth to/from this memory (bytes/s)
system.mem_ctrls.bw_total::switch_cpus1.itb.walker       208496                       # Total bandwidth to/from this memory (bytes/s)
system.mem_ctrls.bw_total::switch_cpus1.inst     36378856                       # Total bandwidth to/from this memory (bytes/s)
system.mem_ctrls.bw_total::switch_cpus1.data     13026932                       # Total bandwidth to/from this memory (bytes/s)
system.mem_ctrls.bw_total::switch_cpus2.dtb.walker       867760                       # Total bandwidth to/from this memory (bytes/s)
system.mem_ctrls.bw_total::switch_cpus2.itb.walker        33776                       # Total bandwidth to/from this memory (bytes/s)
system.mem_ctrls.bw_total::switch_cpus2.inst     55390586                       # Total bandwidth to/from this memory (bytes/s)
system.mem_ctrls.bw_total::switch_cpus2.data     98487405                       # Total bandwidth to/from this memory (bytes/s)
system.mem_ctrls.bw_total::switch_cpus3.dtb.walker       308681                       # Total bandwidth to/from this memory (bytes/s)
system.mem_ctrls.bw_total::switch_cpus3.itb.walker        92312                       # Total bandwidth to/from this memory (bytes/s)
system.mem_ctrls.bw_total::switch_cpus3.inst     96333497                       # Total bandwidth to/from this memory (bytes/s)
system.mem_ctrls.bw_total::switch_cpus3.data      8959230                       # Total bandwidth to/from this memory (bytes/s)
system.mem_ctrls.bw_total::total           2846907078                       # Total bandwidth to/from this memory (bytes/s)
system.mem_ctrls.readReqs                    13795969                       # Number of read requests accepted
system.mem_ctrls.writeReqs                    8624717                       # Number of write requests accepted
system.mem_ctrls.readBursts                  13795969                       # Number of DRAM read bursts, including those serviced by the write queue
system.mem_ctrls.writeBursts                  8624717                       # Number of DRAM write bursts, including those merged in the write queue
system.mem_ctrls.bytesReadDRAM              882531904                       # Total number of bytes read from DRAM
system.mem_ctrls.bytesReadWrQ                  410112                       # Total number of bytes read from write queue
system.mem_ctrls.bytesWritten               551979776                       # Total number of bytes written to DRAM
system.mem_ctrls.bytesReadSys               882942016                       # Total read bytes from the system interface side
system.mem_ctrls.bytesWrittenSys            551981888                       # Total written bytes from the system interface side
system.mem_ctrls.servicedByWrQ                   6408                       # Number of DRAM read bursts serviced by the write queue
system.mem_ctrls.mergedWrBursts                     2                       # Number of DRAM write bursts merged with an existing one
system.mem_ctrls.neitherReadNorWriteReqs            0                       # Number of requests that are neither read nor write
system.mem_ctrls.perBankRdBursts::0            937672                       # Per bank write bursts
system.mem_ctrls.perBankRdBursts::1            878536                       # Per bank write bursts
system.mem_ctrls.perBankRdBursts::2            824094                       # Per bank write bursts
system.mem_ctrls.perBankRdBursts::3            744495                       # Per bank write bursts
system.mem_ctrls.perBankRdBursts::4            739606                       # Per bank write bursts
system.mem_ctrls.perBankRdBursts::5            749973                       # Per bank write bursts
system.mem_ctrls.perBankRdBursts::6           1006940                       # Per bank write bursts
system.mem_ctrls.perBankRdBursts::7            852531                       # Per bank write bursts
system.mem_ctrls.perBankRdBursts::8            917254                       # Per bank write bursts
system.mem_ctrls.perBankRdBursts::9           1076975                       # Per bank write bursts
system.mem_ctrls.perBankRdBursts::10           793996                       # Per bank write bursts
system.mem_ctrls.perBankRdBursts::11           881924                       # Per bank write bursts
system.mem_ctrls.perBankRdBursts::12           705941                       # Per bank write bursts
system.mem_ctrls.perBankRdBursts::13           854077                       # Per bank write bursts
system.mem_ctrls.perBankRdBursts::14           873796                       # Per bank write bursts
system.mem_ctrls.perBankRdBursts::15           951751                       # Per bank write bursts
system.mem_ctrls.perBankWrBursts::0            542958                       # Per bank write bursts
system.mem_ctrls.perBankWrBursts::1            549485                       # Per bank write bursts
system.mem_ctrls.perBankWrBursts::2            536512                       # Per bank write bursts
system.mem_ctrls.perBankWrBursts::3            522839                       # Per bank write bursts
system.mem_ctrls.perBankWrBursts::4            526559                       # Per bank write bursts
system.mem_ctrls.perBankWrBursts::5            528634                       # Per bank write bursts
system.mem_ctrls.perBankWrBursts::6            549273                       # Per bank write bursts
system.mem_ctrls.perBankWrBursts::7            544237                       # Per bank write bursts
system.mem_ctrls.perBankWrBursts::8            542622                       # Per bank write bursts
system.mem_ctrls.perBankWrBursts::9            545926                       # Per bank write bursts
system.mem_ctrls.perBankWrBursts::10           542745                       # Per bank write bursts
system.mem_ctrls.perBankWrBursts::11           554038                       # Per bank write bursts
system.mem_ctrls.perBankWrBursts::12           523285                       # Per bank write bursts
system.mem_ctrls.perBankWrBursts::13           534410                       # Per bank write bursts
system.mem_ctrls.perBankWrBursts::14           536327                       # Per bank write bursts
system.mem_ctrls.perBankWrBursts::15           544834                       # Per bank write bursts
system.mem_ctrls.numRdRetry                         0                       # Number of times read queue was full causing retry
system.mem_ctrls.numWrRetry                      1552                       # Number of times write queue was full causing retry
system.mem_ctrls.totGap                  504029043500                       # Total gap between requests
system.mem_ctrls.readPktSize::0                     0                       # Read request sizes (log2)
system.mem_ctrls.readPktSize::1                     0                       # Read request sizes (log2)
system.mem_ctrls.readPktSize::2                     0                       # Read request sizes (log2)
system.mem_ctrls.readPktSize::3                     0                       # Read request sizes (log2)
system.mem_ctrls.readPktSize::4                     0                       # Read request sizes (log2)
system.mem_ctrls.readPktSize::5                     0                       # Read request sizes (log2)
system.mem_ctrls.readPktSize::6              13795969                       # Read request sizes (log2)
system.mem_ctrls.writePktSize::0                    0                       # Write request sizes (log2)
system.mem_ctrls.writePktSize::1                    0                       # Write request sizes (log2)
system.mem_ctrls.writePktSize::2                    0                       # Write request sizes (log2)
system.mem_ctrls.writePktSize::3                    0                       # Write request sizes (log2)
system.mem_ctrls.writePktSize::4                    0                       # Write request sizes (log2)
system.mem_ctrls.writePktSize::5                    0                       # Write request sizes (log2)
system.mem_ctrls.writePktSize::6              8624717                       # Write request sizes (log2)
system.mem_ctrls.rdQLenPdf::0                 2834872                       # What read queue length does an incoming req see
system.mem_ctrls.rdQLenPdf::1                 3405966                       # What read queue length does an incoming req see
system.mem_ctrls.rdQLenPdf::2                 1766556                       # What read queue length does an incoming req see
system.mem_ctrls.rdQLenPdf::3                 1273104                       # What read queue length does an incoming req see
system.mem_ctrls.rdQLenPdf::4                 1024028                       # What read queue length does an incoming req see
system.mem_ctrls.rdQLenPdf::5                  815664                       # What read queue length does an incoming req see
system.mem_ctrls.rdQLenPdf::6                  669676                       # What read queue length does an incoming req see
system.mem_ctrls.rdQLenPdf::7                  608129                       # What read queue length does an incoming req see
system.mem_ctrls.rdQLenPdf::8                  531414                       # What read queue length does an incoming req see
system.mem_ctrls.rdQLenPdf::9                  415326                       # What read queue length does an incoming req see
system.mem_ctrls.rdQLenPdf::10                 255955                       # What read queue length does an incoming req see
system.mem_ctrls.rdQLenPdf::11                 116493                       # What read queue length does an incoming req see
system.mem_ctrls.rdQLenPdf::12                  45051                       # What read queue length does an incoming req see
system.mem_ctrls.rdQLenPdf::13                  21706                       # What read queue length does an incoming req see
system.mem_ctrls.rdQLenPdf::14                   4604                       # What read queue length does an incoming req see
system.mem_ctrls.rdQLenPdf::15                   1017                       # What read queue length does an incoming req see
system.mem_ctrls.rdQLenPdf::16                      0                       # What read queue length does an incoming req see
system.mem_ctrls.rdQLenPdf::17                      0                       # What read queue length does an incoming req see
system.mem_ctrls.rdQLenPdf::18                      0                       # What read queue length does an incoming req see
system.mem_ctrls.rdQLenPdf::19                      0                       # What read queue length does an incoming req see
system.mem_ctrls.rdQLenPdf::20                      0                       # What read queue length does an incoming req see
system.mem_ctrls.rdQLenPdf::21                      0                       # What read queue length does an incoming req see
system.mem_ctrls.rdQLenPdf::22                      0                       # What read queue length does an incoming req see
system.mem_ctrls.rdQLenPdf::23                      0                       # What read queue length does an incoming req see
system.mem_ctrls.rdQLenPdf::24                      0                       # What read queue length does an incoming req see
system.mem_ctrls.rdQLenPdf::25                      0                       # What read queue length does an incoming req see
system.mem_ctrls.rdQLenPdf::26                      0                       # What read queue length does an incoming req see
system.mem_ctrls.rdQLenPdf::27                      0                       # What read queue length does an incoming req see
system.mem_ctrls.rdQLenPdf::28                      0                       # What read queue length does an incoming req see
system.mem_ctrls.rdQLenPdf::29                      0                       # What read queue length does an incoming req see
system.mem_ctrls.rdQLenPdf::30                      0                       # What read queue length does an incoming req see
system.mem_ctrls.rdQLenPdf::31                      0                       # What read queue length does an incoming req see
system.mem_ctrls.wrQLenPdf::0                       1                       # What write queue length does an incoming req see
system.mem_ctrls.wrQLenPdf::1                       1                       # What write queue length does an incoming req see
system.mem_ctrls.wrQLenPdf::2                       1                       # What write queue length does an incoming req see
system.mem_ctrls.wrQLenPdf::3                       1                       # What write queue length does an incoming req see
system.mem_ctrls.wrQLenPdf::4                       1                       # What write queue length does an incoming req see
system.mem_ctrls.wrQLenPdf::5                       1                       # What write queue length does an incoming req see
system.mem_ctrls.wrQLenPdf::6                       1                       # What write queue length does an incoming req see
system.mem_ctrls.wrQLenPdf::7                       1                       # What write queue length does an incoming req see
system.mem_ctrls.wrQLenPdf::8                       1                       # What write queue length does an incoming req see
system.mem_ctrls.wrQLenPdf::9                       1                       # What write queue length does an incoming req see
system.mem_ctrls.wrQLenPdf::10                      1                       # What write queue length does an incoming req see
system.mem_ctrls.wrQLenPdf::11                      1                       # What write queue length does an incoming req see
system.mem_ctrls.wrQLenPdf::12                      1                       # What write queue length does an incoming req see
system.mem_ctrls.wrQLenPdf::13                      1                       # What write queue length does an incoming req see
system.mem_ctrls.wrQLenPdf::14                      1                       # What write queue length does an incoming req see
system.mem_ctrls.wrQLenPdf::15                  10649                       # What write queue length does an incoming req see
system.mem_ctrls.wrQLenPdf::16                  13434                       # What write queue length does an incoming req see
system.mem_ctrls.wrQLenPdf::17                  74358                       # What write queue length does an incoming req see
system.mem_ctrls.wrQLenPdf::18                 129953                       # What write queue length does an incoming req see
system.mem_ctrls.wrQLenPdf::19                 178563                       # What write queue length does an incoming req see
system.mem_ctrls.wrQLenPdf::20                 235698                       # What write queue length does an incoming req see
system.mem_ctrls.wrQLenPdf::21                 319068                       # What write queue length does an incoming req see
system.mem_ctrls.wrQLenPdf::22                 386445                       # What write queue length does an incoming req see
system.mem_ctrls.wrQLenPdf::23                 445496                       # What write queue length does an incoming req see
system.mem_ctrls.wrQLenPdf::24                 498783                       # What write queue length does an incoming req see
system.mem_ctrls.wrQLenPdf::25                 548982                       # What write queue length does an incoming req see
system.mem_ctrls.wrQLenPdf::26                 598806                       # What write queue length does an incoming req see
system.mem_ctrls.wrQLenPdf::27                 648966                       # What write queue length does an incoming req see
system.mem_ctrls.wrQLenPdf::28                 710795                       # What write queue length does an incoming req see
system.mem_ctrls.wrQLenPdf::29                 792437                       # What write queue length does an incoming req see
system.mem_ctrls.wrQLenPdf::30                 824767                       # What write queue length does an incoming req see
system.mem_ctrls.wrQLenPdf::31                 819478                       # What write queue length does an incoming req see
system.mem_ctrls.wrQLenPdf::32                 730524                       # What write queue length does an incoming req see
system.mem_ctrls.wrQLenPdf::33                 159878                       # What write queue length does an incoming req see
system.mem_ctrls.wrQLenPdf::34                 101508                       # What write queue length does an incoming req see
system.mem_ctrls.wrQLenPdf::35                  68196                       # What write queue length does an incoming req see
system.mem_ctrls.wrQLenPdf::36                  48582                       # What write queue length does an incoming req see
system.mem_ctrls.wrQLenPdf::37                  36005                       # What write queue length does an incoming req see
system.mem_ctrls.wrQLenPdf::38                  27539                       # What write queue length does an incoming req see
system.mem_ctrls.wrQLenPdf::39                  21741                       # What write queue length does an incoming req see
system.mem_ctrls.wrQLenPdf::40                  17395                       # What write queue length does an incoming req see
system.mem_ctrls.wrQLenPdf::41                  14632                       # What write queue length does an incoming req see
system.mem_ctrls.wrQLenPdf::42                  12574                       # What write queue length does an incoming req see
system.mem_ctrls.wrQLenPdf::43                  11422                       # What write queue length does an incoming req see
system.mem_ctrls.wrQLenPdf::44                  10141                       # What write queue length does an incoming req see
system.mem_ctrls.wrQLenPdf::45                   9734                       # What write queue length does an incoming req see
system.mem_ctrls.wrQLenPdf::46                   8815                       # What write queue length does an incoming req see
system.mem_ctrls.wrQLenPdf::47                   8421                       # What write queue length does an incoming req see
system.mem_ctrls.wrQLenPdf::48                   8241                       # What write queue length does an incoming req see
system.mem_ctrls.wrQLenPdf::49                   7622                       # What write queue length does an incoming req see
system.mem_ctrls.wrQLenPdf::50                   7592                       # What write queue length does an incoming req see
system.mem_ctrls.wrQLenPdf::51                   7969                       # What write queue length does an incoming req see
system.mem_ctrls.wrQLenPdf::52                   8533                       # What write queue length does an incoming req see
system.mem_ctrls.wrQLenPdf::53                   8676                       # What write queue length does an incoming req see
system.mem_ctrls.wrQLenPdf::54                   9205                       # What write queue length does an incoming req see
system.mem_ctrls.wrQLenPdf::55                   9315                       # What write queue length does an incoming req see
system.mem_ctrls.wrQLenPdf::56                   6965                       # What write queue length does an incoming req see
system.mem_ctrls.wrQLenPdf::57                   5266                       # What write queue length does an incoming req see
system.mem_ctrls.wrQLenPdf::58                   4570                       # What write queue length does an incoming req see
system.mem_ctrls.wrQLenPdf::59                   3969                       # What write queue length does an incoming req see
system.mem_ctrls.wrQLenPdf::60                   3211                       # What write queue length does an incoming req see
system.mem_ctrls.wrQLenPdf::61                   2671                       # What write queue length does an incoming req see
system.mem_ctrls.wrQLenPdf::62                   2405                       # What write queue length does an incoming req see
system.mem_ctrls.wrQLenPdf::63                   4705                       # What write queue length does an incoming req see
system.mem_ctrls.bytesPerActivate::samples     11068499                       # Bytes accessed per row activation
system.mem_ctrls.bytesPerActivate::mean    129.603172                       # Bytes accessed per row activation
system.mem_ctrls.bytesPerActivate::gmean    90.017357                       # Bytes accessed per row activation
system.mem_ctrls.bytesPerActivate::stdev   177.431634                       # Bytes accessed per row activation
system.mem_ctrls.bytesPerActivate::0-127      8224700     74.31%     74.31% # Bytes accessed per row activation
system.mem_ctrls.bytesPerActivate::128-255      1632010     14.74%     89.05% # Bytes accessed per row activation
system.mem_ctrls.bytesPerActivate::256-383       428224      3.87%     92.92% # Bytes accessed per row activation
system.mem_ctrls.bytesPerActivate::384-511       180320      1.63%     94.55% # Bytes accessed per row activation
system.mem_ctrls.bytesPerActivate::512-639       196323      1.77%     96.32% # Bytes accessed per row activation
system.mem_ctrls.bytesPerActivate::640-767        88924      0.80%     97.13% # Bytes accessed per row activation
system.mem_ctrls.bytesPerActivate::768-895        54610      0.49%     97.62% # Bytes accessed per row activation
system.mem_ctrls.bytesPerActivate::896-1023        62805      0.57%     98.19% # Bytes accessed per row activation
system.mem_ctrls.bytesPerActivate::1024-1151       200583      1.81%    100.00% # Bytes accessed per row activation
system.mem_ctrls.bytesPerActivate::total     11068499                       # Bytes accessed per row activation
system.mem_ctrls.rdPerTurnAround::samples       535675                       # Reads before turning the bus around for writes
system.mem_ctrls.rdPerTurnAround::mean      25.780296                       # Reads before turning the bus around for writes
system.mem_ctrls.rdPerTurnAround::stdev     41.531961                       # Reads before turning the bus around for writes
system.mem_ctrls.rdPerTurnAround::0-1023       535668    100.00%    100.00% # Reads before turning the bus around for writes
system.mem_ctrls.rdPerTurnAround::1024-2047            6      0.00%    100.00% # Reads before turning the bus around for writes
system.mem_ctrls.rdPerTurnAround::27648-28671            1      0.00%    100.00% # Reads before turning the bus around for writes
system.mem_ctrls.rdPerTurnAround::total        535675                       # Reads before turning the bus around for writes
system.mem_ctrls.wrPerTurnAround::samples       535675                       # Writes before turning the bus around for reads
system.mem_ctrls.wrPerTurnAround::mean      16.100591                       # Writes before turning the bus around for reads
system.mem_ctrls.wrPerTurnAround::gmean     16.087460                       # Writes before turning the bus around for reads
system.mem_ctrls.wrPerTurnAround::stdev      0.799879                       # Writes before turning the bus around for reads
system.mem_ctrls.wrPerTurnAround::16-17        521282     97.31%     97.31% # Writes before turning the bus around for reads
system.mem_ctrls.wrPerTurnAround::18-19          9942      1.86%     99.17% # Writes before turning the bus around for reads
system.mem_ctrls.wrPerTurnAround::20-21          2865      0.53%     99.70% # Writes before turning the bus around for reads
system.mem_ctrls.wrPerTurnAround::22-23           842      0.16%     99.86% # Writes before turning the bus around for reads
system.mem_ctrls.wrPerTurnAround::24-25           325      0.06%     99.92% # Writes before turning the bus around for reads
system.mem_ctrls.wrPerTurnAround::26-27           149      0.03%     99.95% # Writes before turning the bus around for reads
system.mem_ctrls.wrPerTurnAround::28-29            71      0.01%     99.96% # Writes before turning the bus around for reads
system.mem_ctrls.wrPerTurnAround::30-31            49      0.01%     99.97% # Writes before turning the bus around for reads
system.mem_ctrls.wrPerTurnAround::32-33            36      0.01%     99.98% # Writes before turning the bus around for reads
system.mem_ctrls.wrPerTurnAround::34-35            17      0.00%     99.98% # Writes before turning the bus around for reads
system.mem_ctrls.wrPerTurnAround::36-37            10      0.00%     99.98% # Writes before turning the bus around for reads
system.mem_ctrls.wrPerTurnAround::38-39            14      0.00%     99.99% # Writes before turning the bus around for reads
system.mem_ctrls.wrPerTurnAround::40-41             8      0.00%     99.99% # Writes before turning the bus around for reads
system.mem_ctrls.wrPerTurnAround::42-43             7      0.00%     99.99% # Writes before turning the bus around for reads
system.mem_ctrls.wrPerTurnAround::44-45             6      0.00%     99.99% # Writes before turning the bus around for reads
system.mem_ctrls.wrPerTurnAround::46-47             9      0.00%     99.99% # Writes before turning the bus around for reads
system.mem_ctrls.wrPerTurnAround::48-49             8      0.00%     99.99% # Writes before turning the bus around for reads
system.mem_ctrls.wrPerTurnAround::50-51             8      0.00%     99.99% # Writes before turning the bus around for reads
system.mem_ctrls.wrPerTurnAround::52-53             4      0.00%    100.00% # Writes before turning the bus around for reads
system.mem_ctrls.wrPerTurnAround::54-55             2      0.00%    100.00% # Writes before turning the bus around for reads
system.mem_ctrls.wrPerTurnAround::56-57             4      0.00%    100.00% # Writes before turning the bus around for reads
system.mem_ctrls.wrPerTurnAround::60-61             3      0.00%    100.00% # Writes before turning the bus around for reads
system.mem_ctrls.wrPerTurnAround::64-65             4      0.00%    100.00% # Writes before turning the bus around for reads
system.mem_ctrls.wrPerTurnAround::66-67             4      0.00%    100.00% # Writes before turning the bus around for reads
system.mem_ctrls.wrPerTurnAround::68-69             1      0.00%    100.00% # Writes before turning the bus around for reads
system.mem_ctrls.wrPerTurnAround::74-75             1      0.00%    100.00% # Writes before turning the bus around for reads
system.mem_ctrls.wrPerTurnAround::76-77             1      0.00%    100.00% # Writes before turning the bus around for reads
system.mem_ctrls.wrPerTurnAround::84-85             1      0.00%    100.00% # Writes before turning the bus around for reads
system.mem_ctrls.wrPerTurnAround::102-103            2      0.00%    100.00% # Writes before turning the bus around for reads
system.mem_ctrls.wrPerTurnAround::total        535675                       # Writes before turning the bus around for reads
system.mem_ctrls.totQLat                 1162122559798                       # Total ticks spent queuing
system.mem_ctrls.totMemAccLat            1420676828548                       # Total ticks spent from burst creation until serviced by the DRAM
system.mem_ctrls.totBusLat                68947805000                       # Total ticks spent in databus transfers
system.mem_ctrls.avgQLat                     84275.53                       # Average queueing delay per DRAM burst
system.mem_ctrls.avgBusLat                    5000.00                       # Average bus latency per DRAM burst
system.mem_ctrls.avgMemAccLat               103025.53                       # Average memory access latency per DRAM burst
system.mem_ctrls.avgRdBW                      1750.95                       # Average DRAM read bandwidth in MiByte/s
system.mem_ctrls.avgWrBW                      1095.13                       # Average achieved write bandwidth in MiByte/s
system.mem_ctrls.avgRdBWSys                   1751.77                       # Average system read bandwidth in MiByte/s
system.mem_ctrls.avgWrBWSys                   1095.14                       # Average system write bandwidth in MiByte/s
system.mem_ctrls.peakBW                      12800.00                       # Theoretical peak bandwidth in MiByte/s
system.mem_ctrls.busUtil                        22.24                       # Data bus utilization in percentage
system.mem_ctrls.busUtilRead                    13.68                       # Data bus utilization in percentage for reads
system.mem_ctrls.busUtilWrite                    8.56                       # Data bus utilization in percentage for writes
system.mem_ctrls.avgRdQLen                       3.84                       # Average read queue length when enqueuing
system.mem_ctrls.avgWrQLen                      27.55                       # Average write queue length when enqueuing
system.mem_ctrls.readRowHits                  8250955                       # Number of row buffer hits during reads
system.mem_ctrls.writeRowHits                 3094790                       # Number of row buffer hits during writes
system.mem_ctrls.readRowHitRate                 59.83                       # Row buffer hit rate for reads
system.mem_ctrls.writeRowHitRate                35.88                       # Row buffer hit rate for writes
system.mem_ctrls.avgGap                      22480.54                       # Average gap between requests
system.mem_ctrls.pageHitRate                    50.62                       # Row buffer hit rate, read and write combined
system.mem_ctrls_0.actEnergy              41407367400                       # Energy for activate commands per rank (pJ)
system.mem_ctrls_0.preEnergy              22593305625                       # Energy for precharge commands per rank (pJ)
system.mem_ctrls_0.readEnergy             52603465200                       # Energy for read commands per rank (pJ)
system.mem_ctrls_0.writeEnergy            27867103920                       # Energy for write commands per rank (pJ)
system.mem_ctrls_0.refreshEnergy          32965367760                       # Energy for refresh commands per rank (pJ)
system.mem_ctrls_0.actBackEnergy         339099272280                       # Energy for active background per rank (pJ)
system.mem_ctrls_0.preBackEnergy           5372160750                       # Energy for precharge background per rank (pJ)
system.mem_ctrls_0.totalEnergy           521908042935                       # Total energy per rank (pJ)
system.mem_ctrls_0.averagePower           1034.069421                       # Core power per rank (mW)
system.mem_ctrls_0.memoryStateTime::IDLE   6680954424                       # Time in different power states
system.mem_ctrls_0.memoryStateTime::REF   16830580000                       # Time in different power states
system.mem_ctrls_0.memoryStateTime::PRE_PDN            0                       # Time in different power states
system.mem_ctrls_0.memoryStateTime::ACT  480515786826                       # Time in different power states
system.mem_ctrls_0.memoryStateTime::ACT_PDN            0                       # Time in different power states
system.mem_ctrls_1.actEnergy              42323820840                       # Energy for activate commands per rank (pJ)
system.mem_ctrls_1.preEnergy              23093354625                       # Energy for precharge commands per rank (pJ)
system.mem_ctrls_1.readEnergy             55112670600                       # Energy for read commands per rank (pJ)
system.mem_ctrls_1.writeEnergy            28020641040                       # Energy for write commands per rank (pJ)
system.mem_ctrls_1.refreshEnergy          32965367760                       # Energy for refresh commands per rank (pJ)
system.mem_ctrls_1.actBackEnergy         340725853350                       # Energy for active background per rank (pJ)
system.mem_ctrls_1.preBackEnergy           3945335250                       # Energy for precharge background per rank (pJ)
system.mem_ctrls_1.totalEnergy           526187043465                       # Total energy per rank (pJ)
system.mem_ctrls_1.averagePower           1042.547511                       # Core power per rank (mW)
system.mem_ctrls_1.memoryStateTime::IDLE   4477328406                       # Time in different power states
system.mem_ctrls_1.memoryStateTime::REF   16830580000                       # Time in different power states
system.mem_ctrls_1.memoryStateTime::PRE_PDN            0                       # Time in different power states
system.mem_ctrls_1.memoryStateTime::ACT  482719412844                       # Time in different power states
system.mem_ctrls_1.memoryStateTime::ACT_PDN            0                       # Time in different power states
system.realview.nvmem.pwrStateResidencyTicks::UNDEFINED 3740565835500                       # Cumulative time (in ticks) in various power states
system.realview.vram.pwrStateResidencyTicks::UNDEFINED 3740565835500                       # Cumulative time (in ticks) in various power states
system.pwrStateResidencyTicks::UNDEFINED 3740565835500                       # Cumulative time (in ticks) in various power states
system.bridge.pwrStateResidencyTicks::UNDEFINED 3740565835500                       # Cumulative time (in ticks) in various power states
system.cf0.dma_read_full_pages                      0                       # Number of full page size DMA reads (not PRD).
system.cf0.dma_read_bytes                           0                       # Number of bytes transfered via DMA reads (not PRD).
system.cf0.dma_read_txs                             0                       # Number of DMA read transactions (not PRD).
system.cf0.dma_write_full_pages                  2334                       # Number of full page size DMA writes.
system.cf0.dma_write_bytes                    9636864                       # Number of bytes transfered via DMA writes.
system.cf0.dma_write_txs                         2403                       # Number of DMA write transactions.
system.cpu_voltage_domain.voltage                   1                       # Voltage in Volts
system.cpu_clk_domain.clock                       500                       # Clock period in ticks
system.cpu0.dstage2_mmu.stage2_tlb.walker.pwrStateResidencyTicks::UNDEFINED 3740565835500                       # Cumulative time (in ticks) in various power states
system.cpu0.dstage2_mmu.stage2_tlb.walker.walks            0                       # Table walker walks requested
system.cpu0.dstage2_mmu.stage2_tlb.walker.walkRequestOrigin_Requested::Data            0                       # Table walker requests started/completed, data/inst
system.cpu0.dstage2_mmu.stage2_tlb.walker.walkRequestOrigin_Requested::Inst            0                       # Table walker requests started/completed, data/inst
system.cpu0.dstage2_mmu.stage2_tlb.walker.walkRequestOrigin_Requested::total            0                       # Table walker requests started/completed, data/inst
system.cpu0.dstage2_mmu.stage2_tlb.walker.walkRequestOrigin_Completed::Data            0                       # Table walker requests started/completed, data/inst
system.cpu0.dstage2_mmu.stage2_tlb.walker.walkRequestOrigin_Completed::Inst            0                       # Table walker requests started/completed, data/inst
system.cpu0.dstage2_mmu.stage2_tlb.walker.walkRequestOrigin_Completed::total            0                       # Table walker requests started/completed, data/inst
system.cpu0.dstage2_mmu.stage2_tlb.walker.walkRequestOrigin::total            0                       # Table walker requests started/completed, data/inst
system.cpu0.dstage2_mmu.stage2_tlb.inst_hits            0                       # ITB inst hits
system.cpu0.dstage2_mmu.stage2_tlb.inst_misses            0                       # ITB inst misses
system.cpu0.dstage2_mmu.stage2_tlb.read_hits            0                       # DTB read hits
system.cpu0.dstage2_mmu.stage2_tlb.read_misses            0                       # DTB read misses
system.cpu0.dstage2_mmu.stage2_tlb.write_hits            0                       # DTB write hits
system.cpu0.dstage2_mmu.stage2_tlb.write_misses            0                       # DTB write misses
system.cpu0.dstage2_mmu.stage2_tlb.flush_tlb            0                       # Number of times complete TLB was flushed
system.cpu0.dstage2_mmu.stage2_tlb.flush_tlb_mva            0                       # Number of times TLB was flushed by MVA
system.cpu0.dstage2_mmu.stage2_tlb.flush_tlb_mva_asid            0                       # Number of times TLB was flushed by MVA & ASID
system.cpu0.dstage2_mmu.stage2_tlb.flush_tlb_asid            0                       # Number of times TLB was flushed by ASID
system.cpu0.dstage2_mmu.stage2_tlb.flush_entries            0                       # Number of entries that have been flushed from TLB
system.cpu0.dstage2_mmu.stage2_tlb.align_faults            0                       # Number of TLB faults due to alignment restrictions
system.cpu0.dstage2_mmu.stage2_tlb.prefetch_faults            0                       # Number of TLB faults due to prefetch
system.cpu0.dstage2_mmu.stage2_tlb.domain_faults            0                       # Number of TLB faults due to domain restrictions
system.cpu0.dstage2_mmu.stage2_tlb.perms_faults            0                       # Number of TLB faults due to permissions restrictions
system.cpu0.dstage2_mmu.stage2_tlb.read_accesses            0                       # DTB read accesses
system.cpu0.dstage2_mmu.stage2_tlb.write_accesses            0                       # DTB write accesses
system.cpu0.dstage2_mmu.stage2_tlb.inst_accesses            0                       # ITB inst accesses
system.cpu0.dstage2_mmu.stage2_tlb.hits             0                       # DTB hits
system.cpu0.dstage2_mmu.stage2_tlb.misses            0                       # DTB misses
system.cpu0.dstage2_mmu.stage2_tlb.accesses            0                       # DTB accesses
system.cpu0.dtb.walker.pwrStateResidencyTicks::UNDEFINED 3740565835500                       # Cumulative time (in ticks) in various power states
system.cpu0.dtb.walker.walks                        0                       # Table walker walks requested
system.cpu0.dtb.walker.walkRequestOrigin_Requested::Data            0                       # Table walker requests started/completed, data/inst
system.cpu0.dtb.walker.walkRequestOrigin_Requested::Inst            0                       # Table walker requests started/completed, data/inst
system.cpu0.dtb.walker.walkRequestOrigin_Requested::total            0                       # Table walker requests started/completed, data/inst
system.cpu0.dtb.walker.walkRequestOrigin_Completed::Data            0                       # Table walker requests started/completed, data/inst
system.cpu0.dtb.walker.walkRequestOrigin_Completed::Inst            0                       # Table walker requests started/completed, data/inst
system.cpu0.dtb.walker.walkRequestOrigin_Completed::total            0                       # Table walker requests started/completed, data/inst
system.cpu0.dtb.walker.walkRequestOrigin::total            0                       # Table walker requests started/completed, data/inst
system.cpu0.dtb.inst_hits                           0                       # ITB inst hits
system.cpu0.dtb.inst_misses                         0                       # ITB inst misses
system.cpu0.dtb.read_hits                           0                       # DTB read hits
system.cpu0.dtb.read_misses                         0                       # DTB read misses
system.cpu0.dtb.write_hits                          0                       # DTB write hits
system.cpu0.dtb.write_misses                        0                       # DTB write misses
system.cpu0.dtb.flush_tlb                           0                       # Number of times complete TLB was flushed
system.cpu0.dtb.flush_tlb_mva                       0                       # Number of times TLB was flushed by MVA
system.cpu0.dtb.flush_tlb_mva_asid                  0                       # Number of times TLB was flushed by MVA & ASID
system.cpu0.dtb.flush_tlb_asid                      0                       # Number of times TLB was flushed by ASID
system.cpu0.dtb.flush_entries                       0                       # Number of entries that have been flushed from TLB
system.cpu0.dtb.align_faults                        0                       # Number of TLB faults due to alignment restrictions
system.cpu0.dtb.prefetch_faults                     0                       # Number of TLB faults due to prefetch
system.cpu0.dtb.domain_faults                       0                       # Number of TLB faults due to domain restrictions
system.cpu0.dtb.perms_faults                        0                       # Number of TLB faults due to permissions restrictions
system.cpu0.dtb.read_accesses                       0                       # DTB read accesses
system.cpu0.dtb.write_accesses                      0                       # DTB write accesses
system.cpu0.dtb.inst_accesses                       0                       # ITB inst accesses
system.cpu0.dtb.hits                                0                       # DTB hits
system.cpu0.dtb.misses                              0                       # DTB misses
system.cpu0.dtb.accesses                            0                       # DTB accesses
system.cpu0.istage2_mmu.stage2_tlb.walker.pwrStateResidencyTicks::UNDEFINED 3740565835500                       # Cumulative time (in ticks) in various power states
system.cpu0.istage2_mmu.stage2_tlb.walker.walks            0                       # Table walker walks requested
system.cpu0.istage2_mmu.stage2_tlb.walker.walkRequestOrigin_Requested::Data            0                       # Table walker requests started/completed, data/inst
system.cpu0.istage2_mmu.stage2_tlb.walker.walkRequestOrigin_Requested::Inst            0                       # Table walker requests started/completed, data/inst
system.cpu0.istage2_mmu.stage2_tlb.walker.walkRequestOrigin_Requested::total            0                       # Table walker requests started/completed, data/inst
system.cpu0.istage2_mmu.stage2_tlb.walker.walkRequestOrigin_Completed::Data            0                       # Table walker requests started/completed, data/inst
system.cpu0.istage2_mmu.stage2_tlb.walker.walkRequestOrigin_Completed::Inst            0                       # Table walker requests started/completed, data/inst
system.cpu0.istage2_mmu.stage2_tlb.walker.walkRequestOrigin_Completed::total            0                       # Table walker requests started/completed, data/inst
system.cpu0.istage2_mmu.stage2_tlb.walker.walkRequestOrigin::total            0                       # Table walker requests started/completed, data/inst
system.cpu0.istage2_mmu.stage2_tlb.inst_hits            0                       # ITB inst hits
system.cpu0.istage2_mmu.stage2_tlb.inst_misses            0                       # ITB inst misses
system.cpu0.istage2_mmu.stage2_tlb.read_hits            0                       # DTB read hits
system.cpu0.istage2_mmu.stage2_tlb.read_misses            0                       # DTB read misses
system.cpu0.istage2_mmu.stage2_tlb.write_hits            0                       # DTB write hits
system.cpu0.istage2_mmu.stage2_tlb.write_misses            0                       # DTB write misses
system.cpu0.istage2_mmu.stage2_tlb.flush_tlb            0                       # Number of times complete TLB was flushed
system.cpu0.istage2_mmu.stage2_tlb.flush_tlb_mva            0                       # Number of times TLB was flushed by MVA
system.cpu0.istage2_mmu.stage2_tlb.flush_tlb_mva_asid            0                       # Number of times TLB was flushed by MVA & ASID
system.cpu0.istage2_mmu.stage2_tlb.flush_tlb_asid            0                       # Number of times TLB was flushed by ASID
system.cpu0.istage2_mmu.stage2_tlb.flush_entries            0                       # Number of entries that have been flushed from TLB
system.cpu0.istage2_mmu.stage2_tlb.align_faults            0                       # Number of TLB faults due to alignment restrictions
system.cpu0.istage2_mmu.stage2_tlb.prefetch_faults            0                       # Number of TLB faults due to prefetch
system.cpu0.istage2_mmu.stage2_tlb.domain_faults            0                       # Number of TLB faults due to domain restrictions
system.cpu0.istage2_mmu.stage2_tlb.perms_faults            0                       # Number of TLB faults due to permissions restrictions
system.cpu0.istage2_mmu.stage2_tlb.read_accesses            0                       # DTB read accesses
system.cpu0.istage2_mmu.stage2_tlb.write_accesses            0                       # DTB write accesses
system.cpu0.istage2_mmu.stage2_tlb.inst_accesses            0                       # ITB inst accesses
system.cpu0.istage2_mmu.stage2_tlb.hits             0                       # DTB hits
system.cpu0.istage2_mmu.stage2_tlb.misses            0                       # DTB misses
system.cpu0.istage2_mmu.stage2_tlb.accesses            0                       # DTB accesses
system.cpu0.itb.walker.pwrStateResidencyTicks::UNDEFINED 3740565835500                       # Cumulative time (in ticks) in various power states
system.cpu0.itb.walker.walks                        0                       # Table walker walks requested
system.cpu0.itb.walker.walkRequestOrigin_Requested::Data            0                       # Table walker requests started/completed, data/inst
system.cpu0.itb.walker.walkRequestOrigin_Requested::Inst            0                       # Table walker requests started/completed, data/inst
system.cpu0.itb.walker.walkRequestOrigin_Requested::total            0                       # Table walker requests started/completed, data/inst
system.cpu0.itb.walker.walkRequestOrigin_Completed::Data            0                       # Table walker requests started/completed, data/inst
system.cpu0.itb.walker.walkRequestOrigin_Completed::Inst            0                       # Table walker requests started/completed, data/inst
system.cpu0.itb.walker.walkRequestOrigin_Completed::total            0                       # Table walker requests started/completed, data/inst
system.cpu0.itb.walker.walkRequestOrigin::total            0                       # Table walker requests started/completed, data/inst
system.cpu0.itb.inst_hits                           0                       # ITB inst hits
system.cpu0.itb.inst_misses                         0                       # ITB inst misses
system.cpu0.itb.read_hits                           0                       # DTB read hits
system.cpu0.itb.read_misses                         0                       # DTB read misses
system.cpu0.itb.write_hits                          0                       # DTB write hits
system.cpu0.itb.write_misses                        0                       # DTB write misses
system.cpu0.itb.flush_tlb                           0                       # Number of times complete TLB was flushed
system.cpu0.itb.flush_tlb_mva                       0                       # Number of times TLB was flushed by MVA
system.cpu0.itb.flush_tlb_mva_asid                  0                       # Number of times TLB was flushed by MVA & ASID
system.cpu0.itb.flush_tlb_asid                      0                       # Number of times TLB was flushed by ASID
system.cpu0.itb.flush_entries                       0                       # Number of entries that have been flushed from TLB
system.cpu0.itb.align_faults                        0                       # Number of TLB faults due to alignment restrictions
system.cpu0.itb.prefetch_faults                     0                       # Number of TLB faults due to prefetch
system.cpu0.itb.domain_faults                       0                       # Number of TLB faults due to domain restrictions
system.cpu0.itb.perms_faults                        0                       # Number of TLB faults due to permissions restrictions
system.cpu0.itb.read_accesses                       0                       # DTB read accesses
system.cpu0.itb.write_accesses                      0                       # DTB write accesses
system.cpu0.itb.inst_accesses                       0                       # ITB inst accesses
system.cpu0.itb.hits                                0                       # DTB hits
system.cpu0.itb.misses                              0                       # DTB misses
system.cpu0.itb.accesses                            0                       # DTB accesses
system.cpu0.pwrStateResidencyTicks::ON   504718640000                       # Cumulative time (in ticks) in various power states
system.cpu0.numCycles                               0                       # number of cpu cycles simulated
system.cpu0.numWorkItemsStarted                     0                       # number of work items this cpu started
system.cpu0.numWorkItemsCompleted                   0                       # number of work items this cpu completed
system.cpu0.kern.inst.arm                           0                       # number of arm instructions executed
system.cpu0.kern.inst.quiesce                     349                       # number of quiesce instructions executed
system.cpu0.committedInsts                          0                       # Number of instructions committed
system.cpu0.committedOps                            0                       # Number of ops (including micro ops) committed
system.cpu0.num_int_alu_accesses                    0                       # Number of integer alu accesses
system.cpu0.num_fp_alu_accesses                     0                       # Number of float alu accesses
system.cpu0.num_func_calls                          0                       # number of times a function call or return occured
system.cpu0.num_conditional_control_insts            0                       # number of instructions that are conditional controls
system.cpu0.num_int_insts                           0                       # number of integer instructions
system.cpu0.num_fp_insts                            0                       # number of float instructions
system.cpu0.num_int_register_reads                  0                       # number of times the integer registers were read
system.cpu0.num_int_register_writes                 0                       # number of times the integer registers were written
system.cpu0.num_fp_register_reads                   0                       # number of times the floating registers were read
system.cpu0.num_fp_register_writes                  0                       # number of times the floating registers were written
system.cpu0.num_mem_refs                            0                       # number of memory refs
system.cpu0.num_load_insts                          0                       # Number of load instructions
system.cpu0.num_store_insts                         0                       # Number of store instructions
system.cpu0.num_idle_cycles                         0                       # Number of idle cycles
system.cpu0.num_busy_cycles                         0                       # Number of busy cycles
system.cpu0.not_idle_fraction                       0                       # Percentage of non-idle cycles
system.cpu0.idle_fraction                           1                       # Percentage of idle cycles
system.cpu0.op_class::No_OpClass                    0                       # Class of executed instruction
system.cpu0.op_class::IntAlu                        0                       # Class of executed instruction
system.cpu0.op_class::IntMult                       0                       # Class of executed instruction
system.cpu0.op_class::IntDiv                        0                       # Class of executed instruction
system.cpu0.op_class::FloatAdd                      0                       # Class of executed instruction
system.cpu0.op_class::FloatCmp                      0                       # Class of executed instruction
system.cpu0.op_class::FloatCvt                      0                       # Class of executed instruction
system.cpu0.op_class::FloatMult                     0                       # Class of executed instruction
system.cpu0.op_class::FloatDiv                      0                       # Class of executed instruction
system.cpu0.op_class::FloatSqrt                     0                       # Class of executed instruction
system.cpu0.op_class::SimdAdd                       0                       # Class of executed instruction
system.cpu0.op_class::SimdAddAcc                    0                       # Class of executed instruction
system.cpu0.op_class::SimdAlu                       0                       # Class of executed instruction
system.cpu0.op_class::SimdCmp                       0                       # Class of executed instruction
system.cpu0.op_class::SimdCvt                       0                       # Class of executed instruction
system.cpu0.op_class::SimdMisc                      0                       # Class of executed instruction
system.cpu0.op_class::SimdMult                      0                       # Class of executed instruction
system.cpu0.op_class::SimdMultAcc                   0                       # Class of executed instruction
system.cpu0.op_class::SimdShift                     0                       # Class of executed instruction
system.cpu0.op_class::SimdShiftAcc                  0                       # Class of executed instruction
system.cpu0.op_class::SimdSqrt                      0                       # Class of executed instruction
system.cpu0.op_class::SimdFloatAdd                  0                       # Class of executed instruction
system.cpu0.op_class::SimdFloatAlu                  0                       # Class of executed instruction
system.cpu0.op_class::SimdFloatCmp                  0                       # Class of executed instruction
system.cpu0.op_class::SimdFloatCvt                  0                       # Class of executed instruction
system.cpu0.op_class::SimdFloatDiv                  0                       # Class of executed instruction
system.cpu0.op_class::SimdFloatMisc                 0                       # Class of executed instruction
system.cpu0.op_class::SimdFloatMult                 0                       # Class of executed instruction
system.cpu0.op_class::SimdFloatMultAcc              0                       # Class of executed instruction
system.cpu0.op_class::SimdFloatSqrt                 0                       # Class of executed instruction
system.cpu0.op_class::MemRead                       0                       # Class of executed instruction
system.cpu0.op_class::MemWrite                      0                       # Class of executed instruction
system.cpu0.op_class::IprAccess                     0                       # Class of executed instruction
system.cpu0.op_class::InstPrefetch                  0                       # Class of executed instruction
system.cpu0.op_class::total                         0                       # Class of executed instruction
system.cpu0.dcache.tags.pwrStateResidencyTicks::UNDEFINED 3740565835500                       # Cumulative time (in ticks) in various power states
system.cpu0.dcache.tags.replacements         11840234                       # number of replacements
system.cpu0.dcache.tags.tagsinuse         1021.525064                       # Cycle average of tags in use
system.cpu0.dcache.tags.total_refs          142225310                       # Total number of references to valid blocks.
system.cpu0.dcache.tags.sampled_refs         11841227                       # Sample count of references to valid blocks.
system.cpu0.dcache.tags.avg_refs            12.011028                       # Average number of references to valid blocks.
system.cpu0.dcache.tags.warmup_cycle     3237888588000                       # Cycle when the warmup percentage was hit.
system.cpu0.dcache.tags.occ_blocks::switch_cpus0.data  1021.525064                       # Average occupied blocks per requestor
system.cpu0.dcache.tags.occ_percent::switch_cpus0.data     0.997583                       # Average percentage of cache occupancy
system.cpu0.dcache.tags.occ_percent::total     0.997583                       # Average percentage of cache occupancy
system.cpu0.dcache.tags.occ_task_id_blocks::1024          993                       # Occupied blocks per task id
system.cpu0.dcache.tags.age_task_id_blocks_1024::0           85                       # Occupied blocks per task id
system.cpu0.dcache.tags.age_task_id_blocks_1024::1          584                       # Occupied blocks per task id
system.cpu0.dcache.tags.age_task_id_blocks_1024::2          324                       # Occupied blocks per task id
system.cpu0.dcache.tags.occ_task_id_percent::1024     0.969727                       # Percentage of cache occupancy per task id
system.cpu0.dcache.tags.tag_accesses        349478479                       # Number of tag accesses
system.cpu0.dcache.tags.data_accesses       349478479                       # Number of data accesses
system.cpu0.dcache.pwrStateResidencyTicks::UNDEFINED 3740565835500                       # Cumulative time (in ticks) in various power states
system.cpu0.dcache.ReadReq_hits::switch_cpus0.data     95812855                       # number of ReadReq hits
system.cpu0.dcache.ReadReq_hits::total       95812855                       # number of ReadReq hits
system.cpu0.dcache.WriteReq_hits::switch_cpus0.data     45862824                       # number of WriteReq hits
system.cpu0.dcache.WriteReq_hits::total      45862824                       # number of WriteReq hits
system.cpu0.dcache.SoftPFReq_hits::switch_cpus0.data        40900                       # number of SoftPFReq hits
system.cpu0.dcache.SoftPFReq_hits::total        40900                       # number of SoftPFReq hits
system.cpu0.dcache.LoadLockedReq_hits::switch_cpus0.data       234655                       # number of LoadLockedReq hits
system.cpu0.dcache.LoadLockedReq_hits::total       234655                       # number of LoadLockedReq hits
system.cpu0.dcache.StoreCondReq_hits::switch_cpus0.data       233436                       # number of StoreCondReq hits
system.cpu0.dcache.StoreCondReq_hits::total       233436                       # number of StoreCondReq hits
system.cpu0.dcache.demand_hits::switch_cpus0.data    141675679                       # number of demand (read+write) hits
system.cpu0.dcache.demand_hits::total       141675679                       # number of demand (read+write) hits
system.cpu0.dcache.overall_hits::switch_cpus0.data    141716579                       # number of overall hits
system.cpu0.dcache.overall_hits::total      141716579                       # number of overall hits
system.cpu0.dcache.ReadReq_misses::switch_cpus0.data     25188452                       # number of ReadReq misses
system.cpu0.dcache.ReadReq_misses::total     25188452                       # number of ReadReq misses
system.cpu0.dcache.WriteReq_misses::switch_cpus0.data      1377654                       # number of WriteReq misses
system.cpu0.dcache.WriteReq_misses::total      1377654                       # number of WriteReq misses
system.cpu0.dcache.SoftPFReq_misses::switch_cpus0.data        53477                       # number of SoftPFReq misses
system.cpu0.dcache.SoftPFReq_misses::total        53477                       # number of SoftPFReq misses
system.cpu0.dcache.LoadLockedReq_misses::switch_cpus0.data         4736                       # number of LoadLockedReq misses
system.cpu0.dcache.LoadLockedReq_misses::total         4736                       # number of LoadLockedReq misses
system.cpu0.dcache.StoreCondReq_misses::switch_cpus0.data         4724                       # number of StoreCondReq misses
system.cpu0.dcache.StoreCondReq_misses::total         4724                       # number of StoreCondReq misses
system.cpu0.dcache.demand_misses::switch_cpus0.data     26566106                       # number of demand (read+write) misses
system.cpu0.dcache.demand_misses::total      26566106                       # number of demand (read+write) misses
system.cpu0.dcache.overall_misses::switch_cpus0.data     26619583                       # number of overall misses
system.cpu0.dcache.overall_misses::total     26619583                       # number of overall misses
system.cpu0.dcache.ReadReq_miss_latency::switch_cpus0.data 1305492696500                       # number of ReadReq miss cycles
system.cpu0.dcache.ReadReq_miss_latency::total 1305492696500                       # number of ReadReq miss cycles
system.cpu0.dcache.WriteReq_miss_latency::switch_cpus0.data  31338649157                       # number of WriteReq miss cycles
system.cpu0.dcache.WriteReq_miss_latency::total  31338649157                       # number of WriteReq miss cycles
system.cpu0.dcache.LoadLockedReq_miss_latency::switch_cpus0.data    187078500                       # number of LoadLockedReq miss cycles
system.cpu0.dcache.LoadLockedReq_miss_latency::total    187078500                       # number of LoadLockedReq miss cycles
system.cpu0.dcache.StoreCondReq_miss_latency::switch_cpus0.data     30360500                       # number of StoreCondReq miss cycles
system.cpu0.dcache.StoreCondReq_miss_latency::total     30360500                       # number of StoreCondReq miss cycles
system.cpu0.dcache.StoreCondFailReq_miss_latency::switch_cpus0.data        56500                       # number of StoreCondFailReq miss cycles
system.cpu0.dcache.StoreCondFailReq_miss_latency::total        56500                       # number of StoreCondFailReq miss cycles
system.cpu0.dcache.demand_miss_latency::switch_cpus0.data 1336831345657                       # number of demand (read+write) miss cycles
system.cpu0.dcache.demand_miss_latency::total 1336831345657                       # number of demand (read+write) miss cycles
system.cpu0.dcache.overall_miss_latency::switch_cpus0.data 1336831345657                       # number of overall miss cycles
system.cpu0.dcache.overall_miss_latency::total 1336831345657                       # number of overall miss cycles
system.cpu0.dcache.ReadReq_accesses::switch_cpus0.data    121001307                       # number of ReadReq accesses(hits+misses)
system.cpu0.dcache.ReadReq_accesses::total    121001307                       # number of ReadReq accesses(hits+misses)
system.cpu0.dcache.WriteReq_accesses::switch_cpus0.data     47240478                       # number of WriteReq accesses(hits+misses)
system.cpu0.dcache.WriteReq_accesses::total     47240478                       # number of WriteReq accesses(hits+misses)
system.cpu0.dcache.SoftPFReq_accesses::switch_cpus0.data        94377                       # number of SoftPFReq accesses(hits+misses)
system.cpu0.dcache.SoftPFReq_accesses::total        94377                       # number of SoftPFReq accesses(hits+misses)
system.cpu0.dcache.LoadLockedReq_accesses::switch_cpus0.data       239391                       # number of LoadLockedReq accesses(hits+misses)
system.cpu0.dcache.LoadLockedReq_accesses::total       239391                       # number of LoadLockedReq accesses(hits+misses)
system.cpu0.dcache.StoreCondReq_accesses::switch_cpus0.data       238160                       # number of StoreCondReq accesses(hits+misses)
system.cpu0.dcache.StoreCondReq_accesses::total       238160                       # number of StoreCondReq accesses(hits+misses)
system.cpu0.dcache.demand_accesses::switch_cpus0.data    168241785                       # number of demand (read+write) accesses
system.cpu0.dcache.demand_accesses::total    168241785                       # number of demand (read+write) accesses
system.cpu0.dcache.overall_accesses::switch_cpus0.data    168336162                       # number of overall (read+write) accesses
system.cpu0.dcache.overall_accesses::total    168336162                       # number of overall (read+write) accesses
system.cpu0.dcache.ReadReq_miss_rate::switch_cpus0.data     0.208167                       # miss rate for ReadReq accesses
system.cpu0.dcache.ReadReq_miss_rate::total     0.208167                       # miss rate for ReadReq accesses
system.cpu0.dcache.WriteReq_miss_rate::switch_cpus0.data     0.029163                       # miss rate for WriteReq accesses
system.cpu0.dcache.WriteReq_miss_rate::total     0.029163                       # miss rate for WriteReq accesses
system.cpu0.dcache.SoftPFReq_miss_rate::switch_cpus0.data     0.566632                       # miss rate for SoftPFReq accesses
system.cpu0.dcache.SoftPFReq_miss_rate::total     0.566632                       # miss rate for SoftPFReq accesses
system.cpu0.dcache.LoadLockedReq_miss_rate::switch_cpus0.data     0.019784                       # miss rate for LoadLockedReq accesses
system.cpu0.dcache.LoadLockedReq_miss_rate::total     0.019784                       # miss rate for LoadLockedReq accesses
system.cpu0.dcache.StoreCondReq_miss_rate::switch_cpus0.data     0.019835                       # miss rate for StoreCondReq accesses
system.cpu0.dcache.StoreCondReq_miss_rate::total     0.019835                       # miss rate for StoreCondReq accesses
system.cpu0.dcache.demand_miss_rate::switch_cpus0.data     0.157904                       # miss rate for demand accesses
system.cpu0.dcache.demand_miss_rate::total     0.157904                       # miss rate for demand accesses
system.cpu0.dcache.overall_miss_rate::switch_cpus0.data     0.158133                       # miss rate for overall accesses
system.cpu0.dcache.overall_miss_rate::total     0.158133                       # miss rate for overall accesses
system.cpu0.dcache.ReadReq_avg_miss_latency::switch_cpus0.data 51829.016587                       # average ReadReq miss latency
system.cpu0.dcache.ReadReq_avg_miss_latency::total 51829.016587                       # average ReadReq miss latency
system.cpu0.dcache.WriteReq_avg_miss_latency::switch_cpus0.data 22747.837379                       # average WriteReq miss latency
system.cpu0.dcache.WriteReq_avg_miss_latency::total 22747.837379                       # average WriteReq miss latency
system.cpu0.dcache.LoadLockedReq_avg_miss_latency::switch_cpus0.data 39501.372466                       # average LoadLockedReq miss latency
system.cpu0.dcache.LoadLockedReq_avg_miss_latency::total 39501.372466                       # average LoadLockedReq miss latency
system.cpu0.dcache.StoreCondReq_avg_miss_latency::switch_cpus0.data  6426.862828                       # average StoreCondReq miss latency
system.cpu0.dcache.StoreCondReq_avg_miss_latency::total  6426.862828                       # average StoreCondReq miss latency
system.cpu0.dcache.StoreCondFailReq_avg_miss_latency::switch_cpus0.data          inf                       # average StoreCondFailReq miss latency
system.cpu0.dcache.StoreCondFailReq_avg_miss_latency::total          inf                       # average StoreCondFailReq miss latency
system.cpu0.dcache.demand_avg_miss_latency::switch_cpus0.data 50320.936973                       # average overall miss latency
system.cpu0.dcache.demand_avg_miss_latency::total 50320.936973                       # average overall miss latency
system.cpu0.dcache.overall_avg_miss_latency::switch_cpus0.data 50219.845505                       # average overall miss latency
system.cpu0.dcache.overall_avg_miss_latency::total 50219.845505                       # average overall miss latency
system.cpu0.dcache.blocked_cycles::no_mshrs      1053204                       # number of cycles access was blocked
system.cpu0.dcache.blocked_cycles::no_targets     33501844                       # number of cycles access was blocked
system.cpu0.dcache.blocked::no_mshrs            21550                       # number of cycles access was blocked
[...]
system.switch_cpus3.commit.op_class_0::SimdFloatAlu            0      0.00%     64.73% # Class of committed instruction
system.switch_cpus3.commit.op_class_0::SimdFloatCmp            5      0.00%     64.73% # Class of committed instruction
system.switch_cpus3.commit.op_class_0::SimdFloatCvt            4      0.00%     64.73% # Class of committed instruction
system.switch_cpus3.commit.op_class_0::SimdFloatDiv            0      0.00%     64.73% # Class of committed instruction
system.switch_cpus3.commit.op_class_0::SimdFloatMisc          780      0.00%     64.73% # Class of committed instruction
system.switch_cpus3.commit.op_class_0::SimdFloatMult            2      0.00%     64.73% # Class of committed instruction
system.switch_cpus3.commit.op_class_0::SimdFloatMultAcc            0      0.00%     64.73% # Class of committed instruction
system.switch_cpus3.commit.op_class_0::SimdFloatSqrt            0      0.00%     64.73% # Class of committed instruction
system.switch_cpus3.commit.op_class_0::MemRead    196745593     17.76%     82.49% # Class of committed instruction
system.switch_cpus3.commit.op_class_0::MemWrite    193938046     17.51%    100.00% # Class of committed instruction
system.switch_cpus3.commit.op_class_0::IprAccess            0      0.00%    100.00% # Class of committed instruction
system.switch_cpus3.commit.op_class_0::InstPrefetch            0      0.00%    100.00% # Class of committed instruction
system.switch_cpus3.commit.op_class_0::total   1107831200                       # Class of committed instruction
system.switch_cpus3.commit.bw_lim_events     24972565                       # number cycles where commit BW limit reached
system.switch_cpus3.rob.rob_reads          2039380964                       # The number of ROB reads
system.switch_cpus3.rob.rob_writes         2465417369                       # The number of ROB writes
system.switch_cpus3.timesIdled                 845411                       # Number of times that the entire CPU went into an idle state and unscheduled itself
system.switch_cpus3.idleCycles              137789617                       # Total number of cycles that the CPU has spent unscheduled due to idling
system.switch_cpus3.quiesceCycles             6339258                       # Total number of cycles that CPU has spent quiesced or waiting for an interrupt
system.switch_cpus3.committedInsts          889849826                       # Number of Instructions Simulated
system.switch_cpus3.committedOps           1107801573                       # Number of Ops (including micro ops) Simulated
system.switch_cpus3.cpi                      1.125717                       # CPI: Cycles Per Instruction
system.switch_cpus3.cpi_total                1.125717                       # CPI: Total CPI of All Threads
system.switch_cpus3.ipc                      0.888323                       # IPC: Instructions Per Cycle
system.switch_cpus3.ipc_total                0.888323                       # IPC: Total IPC of All Threads
system.switch_cpus3.int_regfile_reads      1311766095                       # number of integer regfile reads
system.switch_cpus3.int_regfile_writes      676191880                       # number of integer regfile writes
system.switch_cpus3.fp_regfile_reads             3352                       # number of floating regfile reads
system.switch_cpus3.fp_regfile_writes            2447                       # number of floating regfile writes
system.switch_cpus3.cc_regfile_reads       4104367788                       # number of cc regfile reads
system.switch_cpus3.cc_regfile_writes       649557736                       # number of cc regfile writes
system.switch_cpus3.misc_regfile_reads     2131535433                       # number of misc regfile reads
system.switch_cpus3.misc_regfile_writes       3758435                       # number of misc regfile writes
system.tol2bus.snoop_filter.tot_requests     68545848                       # Total number of requests made to the snoop filter.
system.tol2bus.snoop_filter.hit_single_requests     33985820                       # Number of requests hitting in the snoop filter with a single holder of the requested data.
system.tol2bus.snoop_filter.hit_multi_requests      2102660                       # Number of requests hitting in the snoop filter with multiple (>1) holders of the requested data.
system.tol2bus.snoop_filter.tot_snoops         117590                       # Total number of snoops made to the snoop filter.
system.tol2bus.snoop_filter.hit_single_snoops       114937                       # Number of snoops hitting in the snoop filter with a single holder of the requested data.
system.tol2bus.snoop_filter.hit_multi_snoops         2653                       # Number of snoops hitting in the snoop filter with multiple (>1) holders of the requested data.
system.tol2bus.pwrStateResidencyTicks::UNDEFINED 3740565835500                       # Cumulative time (in ticks) in various power states
system.tol2bus.trans_dist::ReadReq               4432                       # Transaction distribution
system.tol2bus.trans_dist::ReadResp          26849359                       # Transaction distribution
system.tol2bus.trans_dist::WriteReq              5363                       # Transaction distribution
system.tol2bus.trans_dist::WriteResp             5363                       # Transaction distribution
system.tol2bus.trans_dist::WritebackDirty     20289917                       # Transaction distribution
system.tol2bus.trans_dist::WritebackClean     22292202                       # Transaction distribution
system.tol2bus.trans_dist::CleanEvict         3675716                       # Transaction distribution
system.tol2bus.trans_dist::HardPFReq         10090648                       # Transaction distribution
system.tol2bus.trans_dist::UpgradeReq          134005                       # Transaction distribution
system.tol2bus.trans_dist::SCUpgradeReq         17740                       # Transaction distribution
system.tol2bus.trans_dist::UpgradeResp         151744                       # Transaction distribution
system.tol2bus.trans_dist::SCUpgradeFailReq            5                       # Transaction distribution
system.tol2bus.trans_dist::UpgradeFailResp            5                       # Transaction distribution
system.tol2bus.trans_dist::ReadExReq          7439018                       # Transaction distribution
system.tol2bus.trans_dist::ReadExResp         7439018                       # Transaction distribution
system.tol2bus.trans_dist::ReadCleanReq      14142158                       # Transaction distribution
system.tol2bus.trans_dist::ReadSharedReq     12702787                       # Transaction distribution
system.tol2bus.trans_dist::InvalidateReq         6684                       # Transaction distribution
system.tol2bus.pkt_count_system.cpu0.icache.mem_side::system.l2.cpu_side      2428837                       # Packet count per connected master and slave (bytes)
system.tol2bus.pkt_count_system.cpu0.dcache.mem_side::system.l2.cpu_side     35560068                       # Packet count per connected master and slave (bytes)
system.tol2bus.pkt_count_system.cpu0.itb_walker_cache.mem_side::system.l2.cpu_side         2695                       # Packet count per connected master and slave (bytes)
system.tol2bus.pkt_count_system.cpu0.dtb_walker_cache.mem_side::system.l2.cpu_side      4418223                       # Packet count per connected master and slave (bytes)
system.tol2bus.pkt_count_system.cpu1.icache.mem_side::system.l2.cpu_side      6154491                       # Packet count per connected master and slave (bytes)
system.tol2bus.pkt_count_system.cpu1.dcache.mem_side::system.l2.cpu_side      1175946                       # Packet count per connected master and slave (bytes)
system.tol2bus.pkt_count_system.cpu1.itb_walker_cache.mem_side::system.l2.cpu_side        10470                       # Packet count per connected master and slave (bytes)
system.tol2bus.pkt_count_system.cpu1.dtb_walker_cache.mem_side::system.l2.cpu_side        31985                       # Packet count per connected master and slave (bytes)
system.tol2bus.pkt_count_system.cpu2.icache.mem_side::system.l2.cpu_side      5411973                       # Packet count per connected master and slave (bytes)
system.tol2bus.pkt_count_system.cpu2.dcache.mem_side::system.l2.cpu_side     23408415                       # Packet count per connected master and slave (bytes)
system.tol2bus.pkt_count_system.cpu2.itb_walker_cache.mem_side::system.l2.cpu_side         2926                       # Packet count per connected master and slave (bytes)
system.tol2bus.pkt_count_system.cpu2.dtb_walker_cache.mem_side::system.l2.cpu_side       165931                       # Packet count per connected master and slave (bytes)
system.tol2bus.pkt_count_system.cpu3.icache.mem_side::system.l2.cpu_side     23505747                       # Packet count per connected master and slave (bytes)
system.tol2bus.pkt_count_system.cpu3.dcache.mem_side::system.l2.cpu_side       493075                       # Packet count per connected master and slave (bytes)
system.tol2bus.pkt_count_system.cpu3.itb_walker_cache.mem_side::system.l2.cpu_side         4982                       # Packet count per connected master and slave (bytes)
system.tol2bus.pkt_count_system.cpu3.dtb_walker_cache.mem_side::system.l2.cpu_side        16205                       # Packet count per connected master and slave (bytes)
system.tol2bus.pkt_count::total             102791969                       # Packet count per connected master and slave (bytes)
system.tol2bus.pkt_size_system.cpu0.icache.mem_side::system.l2.cpu_side    103629312                       # Cumulative packet size per connected master and slave (bytes)
system.tol2bus.pkt_size_system.cpu0.dcache.mem_side::system.l2.cpu_side   1515400893                       # Cumulative packet size per connected master and slave (bytes)
system.tol2bus.pkt_size_system.cpu0.itb_walker_cache.mem_side::system.l2.cpu_side        72576                       # Cumulative packet size per connected master and slave (bytes)
system.tol2bus.pkt_size_system.cpu0.dtb_walker_cache.mem_side::system.l2.cpu_side    188378944                       # Cumulative packet size per connected master and slave (bytes)
system.tol2bus.pkt_size_system.cpu1.icache.mem_side::system.l2.cpu_side    262590720                       # Cumulative packet size per connected master and slave (bytes)
system.tol2bus.pkt_size_system.cpu1.dcache.mem_side::system.l2.cpu_side     48916472                       # Cumulative packet size per connected master and slave (bytes)
system.tol2bus.pkt_size_system.cpu1.itb_walker_cache.mem_side::system.l2.cpu_side       363584                       # Cumulative packet size per connected master and slave (bytes)
system.tol2bus.pkt_size_system.cpu1.dtb_walker_cache.mem_side::system.l2.cpu_side      1210944                       # Cumulative packet size per connected master and slave (bytes)
system.tol2bus.pkt_size_system.cpu2.icache.mem_side::system.l2.cpu_side    230910400                       # Cumulative packet size per connected master and slave (bytes)
system.tol2bus.pkt_size_system.cpu2.dcache.mem_side::system.l2.cpu_side    988339129                       # Cumulative packet size per connected master and slave (bytes)
system.tol2bus.pkt_size_system.cpu2.itb_walker_cache.mem_side::system.l2.cpu_side        73792                       # Cumulative packet size per connected master and slave (bytes)
system.tol2bus.pkt_size_system.cpu2.dtb_walker_cache.mem_side::system.l2.cpu_side      1926720                       # Cumulative packet size per connected master and slave (bytes)
system.tol2bus.pkt_size_system.cpu3.icache.mem_side::system.l2.cpu_side   1002911360                       # Cumulative packet size per connected master and slave (bytes)
system.tol2bus.pkt_size_system.cpu3.dcache.mem_side::system.l2.cpu_side     20114404                       # Cumulative packet size per connected master and slave (bytes)
system.tol2bus.pkt_size_system.cpu3.itb_walker_cache.mem_side::system.l2.cpu_side       141632                       # Cumulative packet size per connected master and slave (bytes)
system.tol2bus.pkt_size_system.cpu3.dtb_walker_cache.mem_side::system.l2.cpu_side       577664                       # Cumulative packet size per connected master and slave (bytes)
system.tol2bus.pkt_size::total             4365558546                       # Cumulative packet size per connected master and slave (bytes)
system.tol2bus.snoops                        22455398                       # Total snoops (count)
system.tol2bus.snoopTraffic                 553965760                       # Total snoop traffic (bytes)
system.tol2bus.snoop_fanout::samples         56694631                       # Request fanout histogram
system.tol2bus.snoop_fanout::mean            0.043696                       # Request fanout histogram
system.tol2bus.snoop_fanout::stdev           0.242279                       # Request fanout histogram
system.tol2bus.snoop_fanout::underflows             0      0.00%      0.00% # Request fanout histogram
system.tol2bus.snoop_fanout::0               54600168     96.31%     96.31% # Request fanout histogram
system.tol2bus.snoop_fanout::1                1788348      3.15%     99.46% # Request fanout histogram
system.tol2bus.snoop_fanout::2                 242063      0.43%     99.89% # Request fanout histogram
system.tol2bus.snoop_fanout::3                  56527      0.10%     99.99% # Request fanout histogram
system.tol2bus.snoop_fanout::4                   3880      0.01%     99.99% # Request fanout histogram
system.tol2bus.snoop_fanout::5                   2385      0.00%    100.00% # Request fanout histogram
system.tol2bus.snoop_fanout::6                    971      0.00%    100.00% # Request fanout histogram
system.tol2bus.snoop_fanout::7                    289      0.00%    100.00% # Request fanout histogram
system.tol2bus.snoop_fanout::8                      0      0.00%    100.00% # Request fanout histogram
system.tol2bus.snoop_fanout::9                      0      0.00%    100.00% # Request fanout histogram
system.tol2bus.snoop_fanout::10                     0      0.00%    100.00% # Request fanout histogram
system.tol2bus.snoop_fanout::11                     0      0.00%    100.00% # Request fanout histogram
system.tol2bus.snoop_fanout::12                     0      0.00%    100.00% # Request fanout histogram
system.tol2bus.snoop_fanout::13                     0      0.00%    100.00% # Request fanout histogram
system.tol2bus.snoop_fanout::14                     0      0.00%    100.00% # Request fanout histogram
system.tol2bus.snoop_fanout::15                     0      0.00%    100.00% # Request fanout histogram
system.tol2bus.snoop_fanout::16                     0      0.00%    100.00% # Request fanout histogram
system.tol2bus.snoop_fanout::overflows              0      0.00%    100.00% # Request fanout histogram
system.tol2bus.snoop_fanout::min_value              0                       # Request fanout histogram
system.tol2bus.snoop_fanout::max_value              7                       # Request fanout histogram
system.tol2bus.snoop_fanout::total           56694631                       # Request fanout histogram
system.tol2bus.reqLayer0.occupancy        68390085243                       # Layer occupancy (ticks)
system.tol2bus.reqLayer0.utilization             13.6                       # Layer utilization (%)
system.tol2bus.snoopLayer0.occupancy          1898322                       # Layer occupancy (ticks)
system.tol2bus.snoopLayer0.utilization            0.0                       # Layer utilization (%)
system.tol2bus.respLayer0.occupancy        1218549272                       # Layer occupancy (ticks)
system.tol2bus.respLayer0.utilization             0.2                       # Layer utilization (%)
system.tol2bus.respLayer1.occupancy       17843735456                       # Layer occupancy (ticks)
system.tol2bus.respLayer1.utilization             3.5                       # Layer utilization (%)
system.tol2bus.respLayer2.occupancy           2350482                       # Layer occupancy (ticks)
system.tol2bus.respLayer2.utilization             0.0                       # Layer utilization (%)
system.tol2bus.respLayer3.occupancy        2213894599                       # Layer occupancy (ticks)
system.tol2bus.respLayer3.utilization             0.4                       # Layer utilization (%)
system.tol2bus.respLayer4.occupancy        3083281432                       # Layer occupancy (ticks)
system.tol2bus.respLayer4.utilization             0.6                       # Layer utilization (%)
system.tol2bus.respLayer5.occupancy         598954939                       # Layer occupancy (ticks)
system.tol2bus.respLayer5.utilization             0.1                       # Layer utilization (%)
system.tol2bus.respLayer6.occupancy           7218429                       # Layer occupancy (ticks)
system.tol2bus.respLayer6.utilization             0.0                       # Layer utilization (%)
system.tol2bus.respLayer7.occupancy          19686320                       # Layer occupancy (ticks)
system.tol2bus.respLayer7.utilization             0.0                       # Layer utilization (%)
system.tol2bus.respLayer8.occupancy        2713202043                       # Layer occupancy (ticks)
system.tol2bus.respLayer8.utilization             0.5                       # Layer utilization (%)
system.tol2bus.respLayer9.occupancy       11682517208                       # Layer occupancy (ticks)
system.tol2bus.respLayer9.utilization             2.3                       # Layer utilization (%)
system.tol2bus.respLayer10.occupancy          2665488                       # Layer occupancy (ticks)
system.tol2bus.respLayer10.utilization            0.0                       # Layer utilization (%)
system.tol2bus.respLayer11.occupancy        203859259                       # Layer occupancy (ticks)
system.tol2bus.respLayer11.utilization            0.0                       # Layer utilization (%)
system.tol2bus.respLayer12.occupancy      11768981140                       # Layer occupancy (ticks)
system.tol2bus.respLayer12.utilization            2.3                       # Layer utilization (%)
system.tol2bus.respLayer13.occupancy        254850224                       # Layer occupancy (ticks)
system.tol2bus.respLayer13.utilization            0.1                       # Layer utilization (%)
system.tol2bus.respLayer14.occupancy          4165476                       # Layer occupancy (ticks)
system.tol2bus.respLayer14.utilization            0.0                       # Layer utilization (%)
system.tol2bus.respLayer15.occupancy         10809916                       # Layer occupancy (ticks)
system.tol2bus.respLayer15.utilization            0.0                       # Layer utilization (%)
system.switch_cpus0.kern.inst.arm                   0                       # number of arm instructions executed
system.switch_cpus0.kern.inst.quiesce               0                       # number of quiesce instructions executed
system.switch_cpus1.kern.inst.arm                   0                       # number of arm instructions executed
system.switch_cpus1.kern.inst.quiesce               0                       # number of quiesce instructions executed
system.switch_cpus2.kern.inst.arm                   0                       # number of arm instructions executed
system.switch_cpus2.kern.inst.quiesce               0                       # number of quiesce instructions executed
system.switch_cpus3.kern.inst.arm                   0                       # number of arm instructions executed
system.switch_cpus3.kern.inst.quiesce               0                       # number of quiesce instructions executed

---------- End Simulation Statistics   ----------
